<?xml version="1.0" encoding="UTF-8"?>

<!-- generated on Thu May 24 17:29:26 2018 by SUMO netconvert Version 0.32.0
<?xml version="1.0" encoding="UTF-8"?>

<configuration xmlns:xsi="http://www.w3.org/2001/XMLSchema-instance" xsi:noNamespaceSchemaLocation="http://sumo.dlr.de/xsd/netconvertConfiguration.xsd">

    <input>
        <node-files value="nodes.xml"/>
        <osm-files value="test.osm"/>
    </input>

    <output>
        <output-file value="test_junctionjoin5.net.xml"/>
    </output>

    <projection>
        <proj.utm value="true"/>
    </projection>

    <processing>
        <lefthand value="true"/>
    </processing>

</configuration>
-->

<net version="0.27" lefthand="true" xmlns:xsi="http://www.w3.org/2001/XMLSchema-instance" xsi:noNamespaceSchemaLocation="http://sumo.dlr.de/xsd/net_file.xsd">

    <location netOffset="-784421.35,-1431493.61" convBoundary="0.00,-0.00,2166.20,2944.33" origBoundary="77.621477,12.935664,77.641512,12.962332" projParameter="+proj=utm +zone=43 +ellps=WGS84 +datum=WGS84 +units=m +no_defs"/>

    <type id="highway.bridleway" priority="1" numLanes="1" speed="2.78" allow="pedestrian" oneway="1" width="2.00"/>
    <type id="highway.bus_guideway" priority="1" numLanes="1" speed="27.78" allow="bus" oneway="1"/>
    <type id="highway.cycleway" priority="1" numLanes="1" speed="8.33" allow="bicycle" oneway="0" width="1.00"/>
    <type id="highway.footway" priority="1" numLanes="1" speed="2.78" allow="pedestrian" oneway="1" width="2.00"/>
    <type id="highway.ford" priority="1" numLanes="1" speed="2.78" allow="army" oneway="0"/>
    <type id="highway.living_street" priority="3" numLanes="1" speed="2.78" disallow="tram rail_urban rail rail_electric ship" oneway="0"/>
    <type id="highway.motorway" priority="13" numLanes="2" speed="44.44" allow="private emergency authority army vip passenger hov taxi bus coach delivery truck trailer motorcycle evehicle custom1 custom2" oneway="1"/>
    <type id="highway.motorway_link" priority="12" numLanes="1" speed="22.22" allow="private emergency authority army vip passenger hov taxi bus coach delivery truck trailer motorcycle evehicle custom1 custom2" oneway="1"/>
    <type id="highway.path" priority="1" numLanes="1" speed="2.78" allow="bicycle pedestrian" oneway="1" width="2.00"/>
    <type id="highway.pedestrian" priority="1" numLanes="1" speed="2.78" allow="pedestrian" oneway="1" width="2.00"/>
    <type id="highway.primary" priority="9" numLanes="2" speed="27.78" disallow="tram rail_urban rail rail_electric ship" oneway="0"/>
    <type id="highway.primary_link" priority="8" numLanes="1" speed="22.22" disallow="tram rail_urban rail rail_electric ship" oneway="0"/>
    <type id="highway.raceway" priority="14" numLanes="2" speed="83.33" allow="vip" oneway="0"/>
    <type id="highway.residential" priority="4" numLanes="1" speed="13.89" disallow="tram rail_urban rail rail_electric ship" oneway="0"/>
    <type id="highway.secondary" priority="7" numLanes="2" speed="27.78" disallow="tram rail_urban rail rail_electric ship" oneway="0"/>
    <type id="highway.secondary_link" priority="6" numLanes="1" speed="22.22" disallow="tram rail_urban rail rail_electric ship" oneway="0"/>
    <type id="highway.service" priority="2" numLanes="1" speed="5.56" allow="delivery bicycle pedestrian" oneway="0"/>
    <type id="highway.services" priority="1" numLanes="1" speed="8.33" disallow="tram rail_urban rail rail_electric ship" oneway="0"/>
    <type id="highway.stairs" priority="1" numLanes="1" speed="1.39" allow="pedestrian" oneway="1" width="2.00"/>
    <type id="highway.step" priority="1" numLanes="1" speed="1.39" allow="pedestrian" oneway="1" width="2.00"/>
    <type id="highway.steps" priority="1" numLanes="1" speed="1.39" allow="pedestrian" oneway="1" width="2.00"/>
    <type id="highway.tertiary" priority="6" numLanes="1" speed="22.22" disallow="tram rail_urban rail rail_electric ship" oneway="0"/>
    <type id="highway.tertiary_link" priority="5" numLanes="1" speed="22.22" disallow="tram rail_urban rail rail_electric ship" oneway="0"/>
    <type id="highway.track" priority="1" numLanes="1" speed="5.56" disallow="tram rail_urban rail rail_electric ship" oneway="0"/>
    <type id="highway.trunk" priority="11" numLanes="2" speed="27.78" disallow="tram rail_urban rail rail_electric bicycle pedestrian ship" oneway="0"/>
    <type id="highway.trunk_link" priority="10" numLanes="1" speed="22.22" disallow="tram rail_urban rail rail_electric bicycle pedestrian ship" oneway="0"/>
    <type id="highway.unclassified" priority="5" numLanes="1" speed="13.89" disallow="tram rail_urban rail rail_electric ship" oneway="0"/>
    <type id="highway.unsurfaced" priority="1" numLanes="1" speed="8.33" disallow="tram rail_urban rail rail_electric ship" oneway="0"/>
    <type id="railway.light_rail" priority="15" numLanes="1" speed="27.78" allow="rail_urban" oneway="1"/>
    <type id="railway.preserved" priority="15" numLanes="1" speed="27.78" allow="rail" oneway="1"/>
    <type id="railway.rail" priority="15" numLanes="1" speed="83.33" allow="rail rail_electric" oneway="1"/>
    <type id="railway.subway" priority="15" numLanes="1" speed="27.78" allow="rail_urban" oneway="1"/>
    <type id="railway.tram" priority="15" numLanes="1" speed="13.89" allow="tram" oneway="1"/>

    <edge id=":1666061322_0" function="internal">
        <lane id=":1666061322_0_0" index="0" disallow="tram rail_urban rail rail_electric ship" speed="13.89" length="5.83" shape="1013.85,137.90 1009.46,141.73"/>
    </edge>
    <edge id=":1666061322_1" function="internal">
        <lane id=":1666061322_1_0" index="0" disallow="tram rail_urban rail rail_electric ship" speed="13.89" length="3.94" shape="1013.85,137.90 1012.60,139.59 1012.45,141.42"/>
    </edge>
    <edge id=":1666061322_2" function="internal">
        <lane id=":1666061322_2_0" index="0" disallow="tram rail_urban rail rail_electric ship" speed="13.89" length="2.41" shape="1013.85,137.90 1013.49,139.34 1013.73,140.23"/>
    </edge>
    <edge id=":1666061322_12" function="internal">
        <lane id=":1666061322_12_0" index="0" speed="13.89" length="5.15" shape="1012.45,141.42 1013.41,143.40 1015.46,145.53"/>
    </edge>
    <edge id=":1666061322_13" function="internal">
        <lane id=":1666061322_13_0" index="0" speed="13.89" length="2.41" shape="1013.73,140.23 1014.59,140.56 1016.07,140.34"/>
    </edge>
    <edge id=":1666061322_3" function="internal">
        <lane id=":1666061322_3_0" index="0" disallow="tram rail_urban rail rail_electric ship" speed="13.89" length="3.35" shape="1017.59,143.00 1016.63,142.11 1016.05,141.36 1015.86,140.78 1016.07,140.34"/>
    </edge>
    <edge id=":1666061322_4" function="internal">
        <lane id=":1666061322_4_0" index="0" disallow="tram rail_urban rail rail_electric ship" speed="13.89" length="9.01" shape="1017.59,143.00 1015.27,141.40 1013.14,140.65 1011.20,140.76 1009.46,141.73"/>
    </edge>
    <edge id=":1666061322_5" function="internal">
        <lane id=":1666061322_5_0" index="0" disallow="tram rail_urban rail rail_electric ship" speed="13.89" length="4.82" shape="1017.59,143.00 1016.11,142.84 1015.26,143.20 1015.05,144.10 1015.46,145.53"/>
    </edge>
    <edge id=":1666061322_6" function="internal">
        <lane id=":1666061322_6_0" index="0" disallow="tram rail_urban rail rail_electric ship" speed="8.34" length="4.64" shape="1016.53,144.26 1015.56,143.23 1015.17,142.23 1015.33,141.27 1016.07,140.34"/>
    </edge>
    <edge id=":1666061322_7" function="internal">
        <lane id=":1666061322_7_0" index="0" disallow="tram rail_urban rail rail_electric ship" speed="8.34" length="8.01" shape="1016.53,144.26 1014.19,142.51 1012.24,141.51 1010.66,141.25 1009.46,141.73"/>
    </edge>
    <edge id=":1666061322_8" function="internal">
        <lane id=":1666061322_8_0" index="0" disallow="tram rail_urban rail rail_electric ship" speed="8.34" length="1.65" shape="1016.53,144.26 1015.46,145.53"/>
    </edge>
    <edge id=":1666061322_9" function="internal">
        <lane id=":1666061322_9_0" index="0" disallow="tram rail_urban rail rail_electric ship" speed="13.89" length="4.37" shape="1011.59,144.25 1012.27,143.96 1013.15,144.07 1014.21,144.60 1015.46,145.53"/>
    </edge>
    <edge id=":1666061322_10" function="internal">
        <lane id=":1666061322_10_0" index="0" disallow="tram rail_urban rail rail_electric ship" speed="13.89" length="5.94" shape="1011.59,144.25 1016.07,140.34"/>
    </edge>
    <edge id=":1666061322_11" function="internal">
        <lane id=":1666061322_11_0" index="0" disallow="tram rail_urban rail rail_electric ship" speed="13.89" length="2.41" shape="1011.59,144.25 1012.00,142.82 1011.78,141.93"/>
    </edge>
    <edge id=":1666061322_14" function="internal">
        <lane id=":1666061322_14_0" index="0" speed="13.89" length="2.41" shape="1011.78,141.93 1010.93,141.56 1009.46,141.73"/>
    </edge>
    <edge id=":1666061325_0" function="internal">
        <lane id=":1666061325_0_0" index="0" disallow="tram rail_urban rail rail_electric ship" speed="13.89" length="9.12" shape="1003.02,147.44 1001.03,149.28 999.65,150.51 998.21,151.68 996.07,153.34"/>
    </edge>
    <edge id=":1666061325_1" function="internal">
        <lane id=":1666061325_1_0" index="0" disallow="tram rail_urban rail rail_electric ship" speed="8.34" length="5.30" shape="1003.02,147.44 1001.11,149.79 1000.53,151.99"/>
    </edge>
    <edge id=":1666061325_2" function="internal">
        <lane id=":1666061325_2_0" index="0" disallow="tram rail_urban rail rail_electric ship" speed="13.89" length="2.41" shape="1003.02,147.44 1002.67,148.89 1002.93,149.78"/>
    </edge>
    <edge id=":1666061325_9" function="internal">
        <lane id=":1666061325_9_0" index="0" speed="8.34" length="5.58" shape="1000.53,151.99 1000.49,152.13 1001.17,154.44 1003.14,156.74"/>
    </edge>
    <edge id=":1666061325_10" function="internal">
        <lane id=":1666061325_10_0" index="0" speed="13.89" length="2.41" shape="1002.93,149.78 1003.79,150.10 1005.26,149.87"/>
    </edge>
    <edge id=":1666061325_3" function="internal">
        <lane id=":1666061325_3_0" index="0" disallow="tram rail_urban rail rail_electric ship" speed="8.34" length="5.13" shape="1005.31,154.26 1004.38,153.17 1004.06,152.08 1004.36,150.98 1005.26,149.87"/>
    </edge>
    <edge id=":1666061325_4" function="internal">
        <lane id=":1666061325_4_0" index="0" disallow="tram rail_urban rail rail_electric ship" speed="8.34" length="10.18" shape="1005.31,154.26 1002.91,152.60 1000.57,151.90 998.29,152.14 996.07,153.34"/>
    </edge>
    <edge id=":1666061325_5" function="internal">
        <lane id=":1666061325_5_0" index="0" disallow="tram rail_urban rail rail_electric ship" speed="2.78" length="4.82" shape="1005.31,154.26 1003.84,154.06 1002.98,154.41 1002.75,155.31 1003.14,156.74"/>
    </edge>
    <edge id=":1666061325_6" function="internal">
        <lane id=":1666061325_6_0" index="0" disallow="tram rail_urban rail rail_electric ship" speed="8.34" length="5.61" shape="998.07,155.96 999.22,155.37 1000.45,155.30 1001.76,155.76 1003.14,156.74"/>
    </edge>
    <edge id=":1666061325_7" function="internal">
        <lane id=":1666061325_7_0" index="0" disallow="tram rail_urban rail rail_electric ship" speed="13.89" length="9.43" shape="998.07,155.96 1000.28,154.25 1001.77,153.04 1003.20,151.77 1005.26,149.87"/>
    </edge>
    <edge id=":1666061325_8" function="internal">
        <lane id=":1666061325_8_0" index="0" disallow="tram rail_urban rail rail_electric ship" speed="13.89" length="2.41" shape="998.07,155.96 998.55,154.55 998.38,153.65"/>
    </edge>
    <edge id=":1666061325_11" function="internal">
        <lane id=":1666061325_11_0" index="0" speed="13.89" length="2.41" shape="998.38,153.65 997.55,153.24 996.07,153.34"/>
    </edge>
    <edge id=":1666061330_0" function="internal">
        <lane id=":1666061330_0_0" index="0" disallow="tram rail_urban rail rail_electric ship" speed="2.78" length="4.82" shape="1033.38,180.59 1034.86,180.54 1035.65,180.06 1035.74,179.15 1035.13,177.79"/>
    </edge>
    <edge id=":1666061333_0" function="internal">
        <lane id=":1666061333_0_0" index="0" disallow="tram rail_urban rail rail_electric ship" speed="13.89" length="4.82" shape="952.41,82.11 950.93,81.93 950.08,82.29 949.86,83.18 950.26,84.62"/>
    </edge>
    <edge id=":1666061339_0" function="internal">
        <lane id=":1666061339_0_0" index="0" disallow="tram rail_urban rail rail_electric ship" speed="13.89" length="3.99" shape="1009.30,141.86 1008.58,142.22 1007.78,142.14 1006.90,141.63 1005.93,140.67"/>
    </edge>
    <edge id=":1666061339_1" function="internal">
        <lane id=":1666061339_1_0" index="0" disallow="tram rail_urban rail rail_electric ship" speed="13.89" length="8.13" shape="1009.30,141.86 1003.23,147.26"/>
    </edge>
    <edge id=":1666061339_2" function="internal">
        <lane id=":1666061339_2_0" index="0" disallow="tram rail_urban rail rail_electric ship" speed="13.89" length="2.41" shape="1009.30,141.86 1008.89,143.29 1009.11,144.19"/>
    </edge>
    <edge id=":1666061339_9" function="internal">
        <lane id=":1666061339_9_0" index="0" speed="13.89" length="2.41" shape="1009.11,144.19 1009.96,144.55 1011.43,144.38"/>
    </edge>
    <edge id=":1666061339_3" function="internal">
        <lane id=":1666061339_3_0" index="0" disallow="tram rail_urban rail rail_electric ship" speed="13.89" length="7.99" shape="1005.46,149.69 1011.43,144.38"/>
    </edge>
    <edge id=":1666061339_4" function="internal">
        <lane id=":1666061339_4_0" index="0" disallow="tram rail_urban rail rail_electric ship" speed="13.89" length="5.09" shape="1005.46,149.69 1007.21,147.54 1007.87,145.32"/>
    </edge>
    <edge id=":1666061339_5" function="internal">
        <lane id=":1666061339_5_0" index="0" disallow="tram rail_urban rail rail_electric ship" speed="13.89" length="2.41" shape="1005.46,149.69 1005.81,148.24 1005.56,147.36"/>
    </edge>
    <edge id=":1666061339_10" function="internal">
        <lane id=":1666061339_10_0" index="0" speed="13.89" length="5.13" shape="1007.87,145.32 1007.45,143.03 1005.93,140.67"/>
    </edge>
    <edge id=":1666061339_11" function="internal">
        <lane id=":1666061339_11_0" index="0" speed="13.89" length="2.41" shape="1005.56,147.36 1004.69,147.03 1003.23,147.26"/>
    </edge>
    <edge id=":1666061339_6" function="internal">
        <lane id=":1666061339_6_0" index="0" disallow="tram rail_urban rail rail_electric ship" speed="13.89" length="5.02" shape="1003.43,142.83 1004.18,143.99 1004.40,145.12 1004.08,146.21 1003.23,147.26"/>
    </edge>
    <edge id=":1666061339_7" function="internal">
        <lane id=":1666061339_7_0" index="0" disallow="tram rail_urban rail rail_electric ship" speed="13.89" length="9.25" shape="1003.43,142.83 1005.48,144.73 1007.50,145.62 1009.49,145.51 1011.43,144.38"/>
    </edge>
    <edge id=":1666061339_8" function="internal">
        <lane id=":1666061339_8_0" index="0" disallow="tram rail_urban rail rail_electric ship" speed="13.89" length="4.82" shape="1003.43,142.83 1004.86,143.23 1005.76,143.00 1006.11,142.15 1005.93,140.67"/>
    </edge>
    <edge id=":1837284744_0" function="internal">
        <lane id=":1837284744_0_0" index="0" disallow="tram rail_urban rail rail_electric ship" speed="27.78" length="0.31" shape="1461.43,327.48 1461.30,327.43 1461.22,327.39 1461.13,327.35 1460.99,327.31"/>
        <lane id=":1837284744_0_1" index="1" disallow="tram rail_urban rail rail_electric ship" speed="27.78" length="0.31" shape="1460.07,330.49 1460.03,330.47 1460.00,330.46 1459.97,330.45 1459.92,330.43"/>
    </edge>
    <edge id=":1837284746_0" function="internal">
        <lane id=":1837284746_0_0" index="0" disallow="tram rail_urban rail rail_electric ship" speed="27.78" length="0.56" shape="1443.84,342.33 1443.91,342.35 1443.97,342.37 1444.02,342.39 1444.09,342.43"/>
        <lane id=":1837284746_0_1" index="1" disallow="tram rail_urban rail rail_electric ship" speed="27.78" length="0.56" shape="1444.81,339.17 1445.04,339.25 1445.20,339.31 1445.36,339.38 1445.58,339.49"/>
    </edge>
    <edge id=":2268121004_0" function="internal">
        <lane id=":2268121004_0_0" index="0" disallow="tram rail_urban rail rail_electric ship" speed="13.89" length="4.82" shape="723.04,2943.37 722.99,2944.86 723.42,2945.67 724.33,2945.82 725.72,2945.29"/>
    </edge>
    <edge id=":2327191235_0" function="internal">
        <lane id=":2327191235_0_0" index="0" disallow="tram rail_urban rail rail_electric ship" speed="20.84" length="10.83" shape="1062.58,327.46 1063.05,323.27 1063.83,320.30 1064.91,318.54 1066.28,317.99"/>
    </edge>
    <edge id=":2327191235_1" function="internal">
        <lane id=":2327191235_1_0" index="0" disallow="tram rail_urban rail rail_electric ship" speed="13.89" length="18.96" shape="1062.58,327.46 1062.40,321.18 1060.76,318.43 1057.66,319.22 1053.10,323.55"/>
    </edge>
    <edge id=":2327191235_2" function="internal">
        <lane id=":2327191235_2_0" index="0" disallow="tram rail_urban rail rail_electric ship" speed="13.89" length="4.82" shape="1062.58,327.46 1061.84,326.17 1061.04,325.70 1060.19,326.05 1059.28,327.23"/>
    </edge>
    <edge id=":2327191235_3" function="internal">
        <lane id=":2327191235_3_0" index="0" disallow="tram rail_urban rail rail_electric ship" speed="13.89" length="7.38" shape="1055.60,325.71 1057.37,324.03 1058.58,323.72 1059.21,324.79 1059.28,327.23"/>
    </edge>
    <edge id=":2327191235_4" function="internal">
        <lane id=":2327191235_4_0" index="0" disallow="tram rail_urban rail rail_electric ship" speed="20.84" length="15.49" shape="1055.60,325.71 1059.87,320.87 1063.10,317.43 1065.28,315.36 1066.41,314.69"/>
    </edge>
    <edge id=":2327191235_5" function="internal">
        <lane id=":2327191235_5_0" index="0" disallow="tram rail_urban rail rail_electric ship" speed="13.89" length="4.82" shape="1055.60,325.71 1055.79,324.24 1055.43,323.38 1054.54,323.15 1053.10,323.55"/>
    </edge>
    <edge id=":2327191235_6" function="internal">
        <lane id=":2327191235_6_0" index="0" disallow="tram rail_urban rail rail_electric ship" speed="20.84" length="8.28" shape="1053.26,317.61 1055.09,318.02 1055.67,319.15 1055.01,320.99 1053.10,323.55"/>
    </edge>
    <edge id=":2327191235_7" function="internal">
        <lane id=":2327191235_7_0" index="0" disallow="tram rail_urban rail rail_electric ship" speed="20.84" length="12.95" shape="1053.26,317.61 1056.14,318.27 1058.10,320.10 1059.15,323.08 1059.28,327.23"/>
    </edge>
    <edge id=":2327191235_8" function="internal">
        <lane id=":2327191235_8_0" index="0" disallow="tram rail_urban rail rail_electric ship" speed="27.78" length="13.04" shape="1053.26,317.61 1066.28,317.99"/>
        <lane id=":2327191235_8_1" index="1" disallow="tram rail_urban rail rail_electric ship" speed="27.78" length="13.04" shape="1053.35,314.31 1066.41,314.69"/>
    </edge>
    <edge id=":2327191311_0" function="internal">
        <lane id=":2327191311_0_0" index="0" disallow="tram rail_urban rail rail_electric ship" speed="13.89" length="4.82" shape="849.38,667.83 849.93,669.22 850.64,669.79 851.54,669.57 852.61,668.53"/>
    </edge>
    <edge id=":3870649401_0" function="internal">
        <lane id=":3870649401_0_0" index="0" disallow="tram rail_urban rail rail_electric ship" speed="20.84" length="5.30" shape="1031.34,320.50 1031.67,319.00 1032.33,317.94 1033.33,317.32 1034.66,317.14"/>
    </edge>
    <edge id=":3870649401_1" function="internal">
        <lane id=":3870649401_1_0" index="0" disallow="tram rail_urban rail rail_electric ship" speed="13.89" length="4.82" shape="1031.34,320.50 1030.64,319.19 1029.85,318.70 1028.99,319.03 1028.05,320.19"/>
    </edge>
    <edge id=":3870649401_2" function="internal">
        <lane id=":3870649401_2_0" index="0" disallow="tram rail_urban rail rail_electric ship" speed="20.84" length="5.09" shape="1025.14,316.90 1026.53,317.14 1027.48,317.76 1027.99,318.78 1028.05,320.19"/>
    </edge>
    <edge id=":3870649401_3" function="internal">
        <lane id=":3870649401_3_0" index="0" disallow="tram rail_urban rail rail_electric ship" speed="27.78" length="9.52" shape="1025.14,316.90 1034.66,317.14"/>
        <lane id=":3870649401_3_1" index="1" disallow="tram rail_urban rail rail_electric ship" speed="27.78" length="9.52" shape="1025.23,313.60 1034.74,313.84"/>
    </edge>
    <edge id=":3870649402_0" function="internal">
        <lane id=":3870649402_0_0" index="0" disallow="tram rail_urban rail rail_electric ship" speed="13.89" length="22.80" shape="1025.54,346.52 1024.43,354.72 1022.87,360.95 1020.86,365.22 1018.39,367.53"/>
    </edge>
    <edge id=":3870649402_1" function="internal">
        <lane id=":3870649402_1_0" index="0" disallow="tram rail_urban rail rail_electric ship" speed="13.89" length="26.38" shape="1025.54,346.52 1023.45,372.82"/>
    </edge>
    <edge id=":3870649402_2" function="internal">
        <lane id=":3870649402_2_0" index="0" disallow="tram rail_urban rail rail_electric ship" speed="13.89" length="21.39" shape="1025.54,346.52 1024.59,362.37 1025.55,367.80"/>
    </edge>
    <edge id=":3870649402_3" function="internal">
        <lane id=":3870649402_3_0" index="0" disallow="tram rail_urban rail rail_electric ship" speed="13.89" length="2.41" shape="1025.54,346.52 1026.24,347.83 1027.02,348.32"/>
    </edge>
    <edge id=":3870649402_16" function="internal">
        <lane id=":3870649402_16_0" index="0" speed="13.89" length="19.32" shape="1025.55,367.80 1025.70,368.65 1028.85,365.34 1034.06,352.46"/>
    </edge>
    <edge id=":3870649402_17" function="internal">
        <lane id=":3870649402_17_0" index="0" speed="13.89" length="2.41" shape="1027.02,348.32 1027.88,347.99 1028.82,346.84"/>
    </edge>
    <edge id=":3870649402_4" function="internal">
        <lane id=":3870649402_4_0" index="0" disallow="tram rail_urban rail rail_electric ship" speed="13.89" length="14.33" shape="1031.85,348.83 1030.00,353.39 1028.89,354.58 1028.49,352.39 1028.82,346.84"/>
    </edge>
    <edge id=":3870649402_5" function="internal">
        <lane id=":3870649402_5_0" index="0" disallow="tram rail_urban rail rail_electric ship" speed="13.89" length="23.29" shape="1031.85,348.83 1029.67,353.43 1026.17,359.12 1022.15,364.34 1018.39,367.53"/>
    </edge>
    <edge id=":3870649402_6" function="internal">
        <lane id=":3870649402_6_0" index="0" disallow="tram rail_urban rail rail_electric ship" speed="13.89" length="25.47" shape="1031.85,348.83 1029.86,353.86 1027.09,360.72 1024.60,367.62 1023.45,372.82"/>
    </edge>
    <edge id=":3870649402_7" function="internal">
        <lane id=":3870649402_7_0" index="0" disallow="tram rail_urban rail rail_electric ship" speed="13.89" length="6.22" shape="1031.85,348.83 1031.04,350.57 1031.14,351.75 1032.15,352.39 1034.06,352.46"/>
    </edge>
    <edge id=":3870649402_8" function="internal">
        <lane id=":3870649402_8_0" index="0" disallow="tram rail_urban rail rail_electric ship" speed="13.89" length="21.80" shape="1026.74,372.93 1027.73,368.29 1029.85,362.59 1032.24,356.95 1034.06,352.46"/>
    </edge>
    <edge id=":3870649402_9" function="internal">
        <lane id=":3870649402_9_0" index="0" disallow="tram rail_urban rail rail_electric ship" speed="13.89" length="26.18" shape="1026.74,372.93 1028.82,346.84"/>
    </edge>
    <edge id=":3870649402_10" function="internal">
        <lane id=":3870649402_10_0" index="0" disallow="tram rail_urban rail rail_electric ship" speed="13.89" length="5.56" shape="1026.74,372.93 1026.35,368.96 1025.46,367.66"/>
    </edge>
    <edge id=":3870649402_11" function="internal">
        <lane id=":3870649402_11_0" index="0" disallow="tram rail_urban rail rail_electric ship" speed="13.89" length="2.41" shape="1026.74,372.93 1025.96,371.67 1025.15,371.23"/>
    </edge>
    <edge id=":3870649402_18" function="internal">
        <lane id=":3870649402_18_0" index="0" speed="13.89" length="7.81" shape="1025.46,367.66 1024.83,366.74 1022.17,366.26 1018.39,367.53"/>
    </edge>
    <edge id=":3870649402_19" function="internal">
        <lane id=":3870649402_19_0" index="0" speed="13.89" length="2.41" shape="1025.15,371.23 1024.31,371.61 1023.45,372.82"/>
    </edge>
    <edge id=":3870649402_12" function="internal">
        <lane id=":3870649402_12_0" index="0" disallow="tram rail_urban rail rail_electric ship" speed="13.89" length="5.76" shape="1019.85,370.49 1021.48,369.94 1022.62,370.15 1023.28,371.11 1023.45,372.82"/>
    </edge>
    <edge id=":3870649402_13" function="internal">
        <lane id=":3870649402_13_0" index="0" disallow="tram rail_urban rail rail_electric ship" speed="13.89" length="23.21" shape="1019.85,370.49 1023.73,367.40 1028.01,362.42 1031.77,356.96 1034.06,352.46"/>
    </edge>
    <edge id=":3870649402_14" function="internal">
        <lane id=":3870649402_14_0" index="0" disallow="tram rail_urban rail rail_electric ship" speed="13.89" length="26.10" shape="1019.85,370.49 1023.05,367.71 1025.61,362.84 1027.54,355.88 1028.82,346.84"/>
    </edge>
    <edge id=":3870649402_15" function="internal">
        <lane id=":3870649402_15_0" index="0" disallow="tram rail_urban rail rail_electric ship" speed="13.89" length="4.82" shape="1019.85,370.49 1020.59,369.20 1020.60,368.28 1019.86,367.72 1018.39,367.53"/>
    </edge>
    <edge id=":3870649404_0" function="internal">
        <lane id=":3870649404_0_0" index="0" disallow="tram rail_urban rail rail_electric ship" speed="13.89" length="4.82" shape="1050.87,496.91 1051.69,498.15 1052.51,498.57 1053.34,498.16 1054.17,496.92"/>
    </edge>
    <edge id=":3870649405_0" function="internal">
        <lane id=":3870649405_0_0" index="0" disallow="tram rail_urban rail rail_electric ship" speed="20.84" length="5.11" shape="1138.68,324.09 1138.91,322.69 1139.53,321.74 1140.55,321.23 1141.96,321.18"/>
    </edge>
    <edge id=":3870649405_1" function="internal">
        <lane id=":3870649405_1_0" index="0" disallow="tram rail_urban rail rail_electric ship" speed="13.89" length="4.82" shape="1138.68,324.09 1137.88,322.84 1137.06,322.41 1136.23,322.81 1135.38,324.04"/>
    </edge>
    <edge id=":3870649405_2" function="internal">
        <lane id=":3870649405_2_0" index="0" disallow="tram rail_urban rail rail_electric ship" speed="20.84" length="5.28" shape="1132.37,320.49 1133.71,320.75 1134.66,321.43 1135.22,322.53 1135.38,324.04"/>
    </edge>
    <edge id=":3870649405_3" function="internal">
        <lane id=":3870649405_3_0" index="0" disallow="tram rail_urban rail rail_electric ship" speed="27.78" length="9.72" shape="1132.37,320.49 1141.96,321.18"/>
        <lane id=":3870649405_3_1" index="1" disallow="tram rail_urban rail rail_electric ship" speed="27.78" length="9.72" shape="1132.50,317.19 1142.30,317.89"/>
    </edge>
    <edge id=":3870649409_0" function="internal">
        <lane id=":3870649409_0_0" index="0" disallow="tram rail_urban rail rail_electric ship" speed="13.89" length="5.10" shape="1132.76,439.61 1132.55,441.01 1131.93,441.96 1130.92,442.48 1129.51,442.55"/>
    </edge>
    <edge id=":3870649409_1" function="internal">
        <lane id=":3870649409_1_0" index="0" disallow="tram rail_urban rail rail_electric ship" speed="13.89" length="10.40" shape="1132.76,439.61 1133.11,442.52 1134.23,444.65 1136.12,446.03 1138.78,446.63"/>
    </edge>
    <edge id=":3870649409_2" function="internal">
        <lane id=":3870649409_2_0" index="0" disallow="tram rail_urban rail rail_electric ship" speed="13.89" length="4.82" shape="1132.76,439.61 1133.58,440.86 1134.40,441.28 1135.22,440.87 1136.06,439.64"/>
    </edge>
    <edge id=":3870649409_3" function="internal">
        <lane id=":3870649409_3_0" index="0" disallow="tram rail_urban rail rail_electric ship" speed="13.89" length="5.32" shape="1139.02,443.34 1137.71,443.03 1136.78,442.31 1136.23,441.18 1136.06,439.64"/>
    </edge>
    <edge id=":3870649409_4" function="internal">
        <lane id=":3870649409_4_0" index="0" disallow="tram rail_urban rail rail_electric ship" speed="13.89" length="9.55" shape="1139.02,443.34 1129.51,442.55"/>
    </edge>
    <edge id=":3870649409_5" function="internal">
        <lane id=":3870649409_5_0" index="0" disallow="tram rail_urban rail rail_electric ship" speed="13.89" length="2.41" shape="1139.02,443.34 1137.73,444.07 1137.26,444.87"/>
    </edge>
    <edge id=":3870649409_9" function="internal">
        <lane id=":3870649409_9_0" index="0" speed="13.89" length="2.41" shape="1137.26,444.87 1137.61,445.72 1138.78,446.63"/>
    </edge>
    <edge id=":3870649409_6" function="internal">
        <lane id=":3870649409_6_0" index="0" disallow="tram rail_urban rail rail_electric ship" speed="13.89" length="9.61" shape="1129.20,445.84 1138.78,446.63"/>
    </edge>
    <edge id=":3870649409_7" function="internal">
        <lane id=":3870649409_7_0" index="0" disallow="tram rail_urban rail rail_electric ship" speed="13.89" length="5.37" shape="1129.20,445.84 1132.18,445.68 1134.31,444.60"/>
    </edge>
    <edge id=":3870649409_8" function="internal">
        <lane id=":3870649409_8_0" index="0" disallow="tram rail_urban rail rail_electric ship" speed="13.89" length="2.41" shape="1129.20,445.84 1130.51,445.13 1131.00,444.34"/>
    </edge>
    <edge id=":3870649409_10" function="internal">
        <lane id=":3870649409_10_0" index="0" speed="13.89" length="5.37" shape="1134.31,444.60 1135.61,442.59 1136.06,439.64"/>
    </edge>
    <edge id=":3870649409_11" function="internal">
        <lane id=":3870649409_11_0" index="0" speed="13.89" length="2.41" shape="1131.00,444.34 1130.66,443.48 1129.51,442.55"/>
    </edge>
    <edge id=":3870649410_0" function="internal">
        <lane id=":3870649410_0_0" index="0" disallow="tram rail_urban rail rail_electric ship" speed="18.05" length="7.03" shape="1166.10,442.94 1165.27,443.92 1163.92,444.57 1162.06,444.88 1159.69,444.85"/>
    </edge>