<?xml version="1.0" encoding="UTF-8"?>

<!-- generated on Thursday 01 February 2018 05:27:09 PM IST by Netedit Version 0.32.0
<?xml version="1.0" encoding="UTF-8"?>

<configuration xmlns:xsi="http://www.w3.org/2001/XMLSchema-instance" xsi:noNamespaceSchemaLocation="http://sumo.dlr.de/xsd/netconvertConfiguration.xsd">

    <input>
        <sumo-net-file value="/home/mtuity/Study/Projects/Traffic_Simulation/tutorials/basic/autobahn/autobahn.net.xml"/>
    </input>

    <output>
        <output-file value="/home/mtuity/Study/Projects/Traffic_Simulation/tutorials/basic/autobahn/autobahn.net.xml"/>
    </output>

    <processing>
        <no-turnarounds value="true"/>
        <offset.disable-normalization value="true"/>
        <lefthand value="false"/>
        <junctions.corner-detail value="0"/>
        <rectangular-lane-cut value="false"/>
        <walkingareas value="false"/>
    </processing>

</configuration>
-->

<net version="0.27" xmlns:xsi="http://www.w3.org/2001/XMLSchema-instance" xsi:noNamespaceSchemaLocation="http://sumo.dlr.de/xsd/net_file.xsd">

    <location netOffset="0.00,0.00" convBoundary="0.00,1000.00,2209.40,1000.00" origBoundary="-10000000000.00,-10000000000.00,10000000000.00,10000000000.00" projParameter="!"/>

    <edge id=":gneJ2_0" function="internal">
        <lane id=":gneJ2_0_0" index="0" speed="36.11" length="0.10" shape="60.97,1004.95 60.97,1004.95"/>
        <lane id=":gneJ2_0_1" index="1" speed="36.11" length="0.10" shape="60.97,1001.65 60.97,1001.65"/>
    </edge>
    <edge id=":gneJ3_0" function="internal">
        <lane id=":gneJ3_0_0" index="0" speed="36.11" length="0.10" shape="2110.18,1004.95 2110.18,1004.95"/>
        <lane id=":gneJ3_0_1" index="1" speed="36.11" length="0.10" shape="2110.18,1001.65 2110.18,1001.65"/>
    </edge>

    <edge id="entry" from="gneJ2" to="gneJ1" priority="1">
        <lane id="entry_0" index="0" speed="36.11" length="60.97" shape="60.97,1004.95 0.00,1004.95"/>
        <lane id="entry_1" index="1" speed="36.11" length="60.97" shape="60.97,1001.65 0.00,1001.65"/>
    </edge>
    <edge id="exit" from="gneJ0" to="gneJ3" priority="1">
        <lane id="exit_0" index="0" speed="36.11" length="99.22" shape="2209.40,1004.95 2110.18,1004.95"/>
        <lane id="exit_1" index="1" speed="36.11" length="99.22" shape="2209.40,1001.65 2110.18,1001.65"/>
    </edge>
    <edge id="longEdge" from="gneJ3" to="gneJ2" priority="1">
        <lane id="longEdge_0" index="0" speed="36.11" length="2049.21" shape="2110.18,1004.95 60.97,1004.95"/>
        <lane id="longEdge_1" index="1" speed="36.11" length="2049.21" shape="2110.18,1001.65 60.97,1001.65"/>
    </edge>

    <junction id="gneJ0" type="dead_end" x="2209.40" y="1000.00" incLanes="" intLanes="" shape="2209.40,1000.05 2209.40,1006.55"/>
    <junction id="gneJ1" type="dead_end" x="0.00" y="1000.00" incLanes="entry_0 entry_1" intLanes="" shape="0.00,1006.55 0.00,1000.05"/>
    <junction id="gneJ2" type="priority" x="60.97" y="1000.00" incLanes="longEdge_0 longEdge_1" intLanes=":gneJ2_0_0 :gneJ2_0_1" shape="60.97,1006.55 60.97,1000.05 60.97,1006.55">
        <request index="0" response="00" foes="00" cont="0"/>
        <request index="1" response="00" foes="00" cont="0"/>
    </junction>
    <junction id="gneJ3" type="priority" x="2110.18" y="1000.00" incLanes="exit_0 exit_1" intLanes=":gneJ3_0_0 :gneJ3_0_1" shape="2110.18,1006.55 2110.18,1000.05 2110.18,1006.55">
        <request index="0" response="00" foes="00" cont="0"/>
        <request index="1" response="00" foes="00" cont="0"/>
    </junction>

    <connection from="exit" to="longEdge" fromLane="0" toLane="0" via=":gneJ3_0_0" dir="s" state="M"/>
    <connection from="exit" to="longEdge" fromLane="1" toLane="1" via=":gneJ3_0_1" dir="s" state="M"/>
    <connection from="longEdge" to="entry" fromLane="0" toLane="0" via=":gneJ2_0_0" dir="s" state="M"/>
    <connection from="longEdge" to="entry" fromLane="1" toLane="1" via=":gneJ2_0_1" dir="s" state="M"/>

    <connection from=":gneJ2_0" to="entry" fromLane="0" toLane="0" dir="s" state="M"/>
    <connection from=":gneJ2_0" to="entry" fromLane="1" toLane="1" dir="s" state="M"/>
    <connection from=":gneJ3_0" to="longEdge" fromLane="0" toLane="0" dir="s" state="M"/>
    <connection from=":gneJ3_0" to="longEdge" fromLane="1" toLane="1" dir="s" state="M"/>

</net>
