<?xml version="1.0" encoding="UTF-8"?>
<!-- generated on 2018-02-01 19:06:30.954378 by $Id$ via randomTrips.py
  options: 
-->
<routes xmlns:xsi="http://www.w3.org/2001/XMLSchema-instance" xsi:noNamespaceSchemaLocation="http://sumo.dlr.de/xsd/routes_file.xsd">
    <vType id="bus" vClass="bus">
    </vType>
    <trip id="bus0" depart="0.00" departLane="best" from="136789778" to="-107218840#8" type="bus"/>
    <trip id="bus1" depart="4.34" departLane="best" from="36054716" to="35133687#8" type="bus"/>
    <trip id="bus2" depart="8.69" departLane="best" from="59358753" to="-136752103" type="bus"/>
    <trip id="bus3" depart="13.03" departLane="best" from="-59358858#2" to="-112994272#1" type="bus"/>
    <trip id="bus4" depart="17.37" departLane="best" from="-112994255#2" to="-330032677#2" type="bus"/>
    <trip id="bus5" depart="21.72" departLane="best" from="-35133712#1" to="136784708#1" type="bus"/>
    <trip id="bus6" depart="26.06" departLane="best" from="450762933#0" to="-105201134#0" type="bus"/>
    <trip id="bus7" depart="30.41" departLane="best" from="-543277823" to="-165399793#2" type="bus"/>
    <trip id="bus8" depart="34.75" departLane="best" from="82159777#0" to="-59358724#0" type="bus"/>
    <trip id="bus9" depart="39.09" departLane="best" from="543237964#2" to="136789087" type="bus"/>
    <trip id="bus10" depart="43.44" departLane="best" from="461556554#22" to="173431796#4" type="bus"/>
    <trip id="bus11" depart="47.78" departLane="best" from="59358696#0" to="136752733#2" type="bus"/>
    <trip id="bus12" depart="52.12" departLane="best" from="-36054475#8" to="-40542210#0" type="bus"/>
    <trip id="bus13" depart="56.47" departLane="best" from="-119132970#1" to="-36054715" type="bus"/>
    <trip id="bus14" depart="60.81" departLane="best" from="-126774206#7" to="-38109115#0" type="bus"/>
    <trip id="bus15" depart="65.16" departLane="best" from="136789777" to="-59358764#0" type="bus"/>
    <trip id="bus16" depart="69.50" departLane="best" from="-59358746#0" to="-346768561#4" type="bus"/>
    <trip id="bus17" depart="73.84" departLane="best" from="-38108994#2" to="59358884#1" type="bus"/>
    <trip id="bus18" depart="78.19" departLane="best" from="-173431807" to="-59358808#6" type="bus"/>
    <trip id="bus19" depart="82.53" departLane="best" from="98192934#1" to="217529762#1" type="bus"/>
    <trip id="bus20" depart="86.87" departLane="best" from="119132973#1" to="36054475#2" type="bus"/>
    <trip id="bus21" depart="91.22" departLane="best" from="479433848#0" to="421821814#0" type="bus"/>
    <trip id="bus22" depart="95.56" departLane="best" from="-36054712#1" to="-112994285#1" type="bus"/>
    <trip id="bus23" depart="99.91" departLane="best" from="-346768561#7" to="59358897#3" type="bus"/>
    <trip id="bus24" depart="104.25" departLane="best" from="59358725#2" to="-543237964#2" type="bus"/>
    <trip id="bus25" depart="108.59" departLane="best" from="165399793#1" to="-59358873#0" type="bus"/>
    <trip id="bus26" depart="112.94" departLane="best" from="59358808#3" to="105201129#6" type="bus"/>
    <trip id="bus27" depart="117.28" departLane="best" from="-368277496" to="-36327857#2" type="bus"/>
    <trip id="bus28" depart="121.62" departLane="best" from="133881868#0" to="59358808#3" type="bus"/>
    <trip id="bus29" depart="125.97" departLane="best" from="98581271#0" to="117916073#3" type="bus"/>
    <trip id="bus31" depart="134.65" departLane="best" from="-117933624#2" to="-59358829" type="bus"/>
    <trip id="bus32" depart="139.00" departLane="best" from="97848147#2" to="59358706#1" type="bus"/>
    <trip id="bus33" depart="143.34" departLane="best" from="217529762#0" to="119132973#5" type="bus"/>
    <trip id="bus35" depart="152.03" departLane="best" from="-136752731#0" to="-97860982#1" type="bus"/>
    <trip id="bus36" depart="156.37" departLane="best" from="59358725#1" to="-38108994#1" type="bus"/>
    <trip id="bus37" depart="160.72" departLane="best" from="-40542210#2" to="217529762#1" type="bus"/>
    <trip id="bus38" depart="165.06" departLane="best" from="364686199#1" to="119132978" type="bus"/>
    <trip id="bus39" depart="169.40" departLane="best" from="38109072#1" to="118926933#0" type="bus"/>
    <trip id="bus40" depart="173.75" departLane="best" from="-105201129#0" to="-554111199" type="bus"/>
    <trip id="bus41" depart="178.09" departLane="best" from="59358738" to="543277823" type="bus"/>
    <trip id="bus42" depart="182.44" departLane="best" from="-421821814#0" to="-118004576#6" type="bus"/>
    <trip id="bus43" depart="186.78" departLane="best" from="59358732" to="66080925#0" type="bus"/>
    <trip id="bus44" depart="191.12" departLane="best" from="-119132978" to="112994272#5" type="bus"/>
    <trip id="bus45" depart="195.47" departLane="best" from="-118004576#1" to="39297571#1" type="bus"/>
    <trip id="bus46" depart="199.81" departLane="best" from="364688017#5" to="-136789237#1" type="bus"/>
    <trip id="bus47" depart="204.15" departLane="best" from="-97950273#1" to="126774206#0" type="bus"/>
    <trip id="bus48" depart="208.50" departLane="best" from="-371381441" to="59358748#2" type="bus"/>
    <trip id="bus50" depart="217.19" departLane="best" from="98192938#7" to="24403280#5" type="bus"/>
    <trip id="bus51" depart="221.53" departLane="best" from="-59358878" to="117933624#2" type="bus"/>
    <trip id="bus52" depart="225.87" departLane="best" from="-136752734#1" to="-36054475#7" type="bus"/>
    <trip id="bus53" depart="230.22" departLane="best" from="-36054713" to="-35133712#0" type="bus"/>
    <trip id="bus54" depart="234.56" departLane="best" from="-118004576#5" to="217529737" type="bus"/>
    <trip id="bus55" depart="238.90" departLane="best" from="-36054712#1" to="59358827" type="bus"/>
    <trip id="bus56" depart="243.25" departLane="best" from="-36054717#2" to="346768561#3" type="bus"/>
    <trip id="bus57" depart="247.59" departLane="best" from="-35133687#4" to="-136789776" type="bus"/>
    <trip id="bus59" depart="256.28" departLane="best" from="450548830" to="-26179372#0" type="bus"/>
    <trip id="bus60" depart="260.62" departLane="best" from="-126774206#1" to="-97849876#3" type="bus"/>
    <trip id="bus61" depart="264.97" departLane="best" from="-59358858#5" to="105317908#5" type="bus"/>
    <trip id="bus62" depart="269.31" departLane="best" from="36054712#0" to="35133687#2" type="bus"/>
    <trip id="bus63" depart="273.65" departLane="best" from="554111199" to="-36327857#5" type="bus"/>
    <trip id="bus64" depart="278.00" departLane="best" from="-24403280#4" to="-98192938#7" type="bus"/>
    <trip id="bus65" depart="282.34" departLane="best" from="-36434482#3" to="59358862" type="bus"/>
    <trip id="bus66" depart="286.68" departLane="best" from="98581271#4" to="543283935" type="bus"/>
    <trip id="bus67" depart="291.03" departLane="best" from="93576221#8" to="59358863#1" type="bus"/>
    <trip id="bus68" depart="295.37" departLane="best" from="543237965#2" to="-173431810#1" type="bus"/>
    <trip id="bus69" depart="299.72" departLane="best" from="-98192938#3" to="-35133687#3" type="bus"/>
    <trip id="bus70" depart="304.06" departLane="best" from="-59358808#5" to="-118004576#8" type="bus"/>
    <trip id="bus71" depart="308.40" departLane="best" from="-59358758#1" to="97950277" type="bus"/>
    <trip id="bus72" depart="312.75" departLane="best" from="119132970#1" to="364686191#1" type="bus"/>
    <trip id="bus73" depart="317.09" departLane="best" from="-165399793#3" to="-420294822#1" type="bus"/>
    <trip id="bus74" depart="321.43" departLane="best" from="105317908#0" to="557330602" type="bus"/>
    <trip id="bus75" depart="325.78" departLane="best" from="-173431796#1" to="93576221#1" type="bus"/>
    <trip id="bus76" depart="330.12" departLane="best" from="-119132970#1" to="-24403280#1" type="bus"/>
    <trip id="bus77" depart="334.46" departLane="best" from="-36054714#3" to="-136789080#0" type="bus"/>
    <trip id="bus78" depart="338.81" departLane="best" from="59358752" to="-36327857#1" type="bus"/>
    <trip id="bus79" depart="343.15" departLane="best" from="136752732#0" to="173431796#5" type="bus"/>
    <trip id="bus80" depart="347.50" departLane="best" from="-59358850#1" to="136775502#1" type="bus"/>
    <trip id="bus81" depart="351.84" departLane="best" from="112994272#2" to="59358878" type="bus"/>
    <trip id="bus82" depart="356.18" departLane="best" from="-36054717#3" to="-59358873#0" type="bus"/>
    <trip id="bus83" depart="360.53" departLane="best" from="-479433848#1" to="385360495" type="bus"/>
    <trip id="bus84" depart="364.87" departLane="best" from="-118004576#8" to="105201129#6" type="bus"/>
    <trip id="bus85" depart="369.21" departLane="best" from="-118926925#0" to="-35133687#2" type="bus"/>
    <trip id="bus86" depart="373.56" departLane="best" from="-371381441" to="59358875" type="bus"/>
    <trip id="bus87" depart="377.90" departLane="best" from="59358747#0" to="59358759#1" type="bus"/>
    <trip id="bus88" depart="382.25" departLane="best" from="136792697#1" to="-105201134#3" type="bus"/>
    <trip id="bus89" depart="386.59" departLane="best" from="457146567" to="-421821814#0" type="bus"/>
    <trip id="bus90" depart="390.93" departLane="best" from="173431804" to="59358884#1" type="bus"/>
    <trip id="bus92" depart="399.62" departLane="best" from="-38109036#3" to="136789874#0" type="bus"/>
    <trip id="bus93" depart="403.96" departLane="best" from="35133687#6" to="-346551691" type="bus"/>
    <trip id="bus94" depart="408.31" departLane="best" from="136789776" to="-38108994#2" type="bus"/>
    <trip id="bus95" depart="412.65" departLane="best" from="-98192938#8" to="59358827" type="bus"/>
    <trip id="bus96" depart="417.00" departLane="best" from="543237964#0" to="-136752731#5" type="bus"/>
    <trip id="bus97" depart="421.34" departLane="best" from="-59358858#5" to="-38109113#3" type="bus"/>
    <trip id="bus98" depart="425.68" departLane="best" from="-105201129#5" to="420294819" type="bus"/>
    <trip id="bus99" depart="430.03" departLane="best" from="36054717#0" to="126774206#4" type="bus"/>
    <trip id="bus100" depart="434.37" departLane="best" from="-118926925#1" to="59358764#1" type="bus"/>
    <trip id="bus101" depart="438.71" departLane="best" from="59358778" to="119132982" type="bus"/>
    <trip id="bus102" depart="443.06" departLane="best" from="40542210#0" to="59358706#1" type="bus"/>
    <trip id="bus103" depart="447.40" departLane="best" from="-36434482#3" to="-136775502#0" type="bus"/>
    <trip id="bus104" depart="451.74" departLane="best" from="38109112#1" to="59358764#1" type="bus"/>
    <trip id="bus105" depart="456.09" departLane="best" from="-59358826#2" to="173431796#8" type="bus"/>
    <trip id="bus106" depart="460.43" departLane="best" from="-165399793#3" to="59358873#2" type="bus"/>
    <trip id="bus107" depart="464.78" departLane="best" from="59358702#10" to="97849876#1" type="bus"/>
    <trip id="bus108" depart="469.12" departLane="best" from="450762933#1" to="59358759#1" type="bus"/>
    <trip id="bus109" depart="473.46" departLane="best" from="-107218841" to="38108994#5" type="bus"/>
    <trip id="bus110" depart="477.81" departLane="best" from="-543277820" to="59358873#2" type="bus"/>
    <trip id="bus111" depart="482.15" departLane="best" from="420294820#0" to="59358724#2" type="bus"/>
    <trip id="bus112" depart="486.49" departLane="best" from="450762933#1" to="-38108994#7" type="bus"/>
    <trip id="bus113" depart="490.84" departLane="best" from="381455584#0" to="-136784703" type="bus"/>
    <trip id="bus114" depart="495.18" departLane="best" from="-35133712#1" to="543237965#5" type="bus"/>
    <trip id="bus115" depart="499.53" departLane="best" from="40542210#0" to="-36054712#0" type="bus"/>
    <trip id="bus116" depart="503.87" departLane="best" from="-107218841" to="-329620749#0" type="bus"/>
    <trip id="bus117" depart="508.21" departLane="best" from="-543275532" to="59358724#2" type="bus"/>
    <trip id="bus118" depart="512.56" departLane="best" from="136789779" to="-59358884#0" type="bus"/>
    <trip id="bus119" depart="516.90" departLane="best" from="97860982#1" to="119132973#4" type="bus"/>
    <trip id="bus120" depart="521.24" departLane="best" from="59358888#1" to="-136787725#1" type="bus"/>
    <trip id="bus121" depart="525.59" departLane="best" from="97848147#0" to="-217529752#0" type="bus"/>
    <trip id="bus122" depart="529.93" departLane="best" from="93576221#0" to="-38108994#4" type="bus"/>
    <trip id="bus124" depart="538.62" departLane="best" from="36054712#0" to="-543237964#0" type="bus"/>
    <trip id="bus125" depart="542.96" departLane="best" from="-59358764#1" to="136752733#0" type="bus"/>
    <trip id="bus126" depart="547.31" departLane="best" from="-36436967#2" to="36434482#12" type="bus"/>
    <trip id="bus127" depart="551.65" departLane="best" from="116937014#1" to="364686191#1" type="bus"/>
    <trip id="bus128" depart="555.99" departLane="best" from="36054717#1" to="346768561#6" type="bus"/>
    <trip id="bus129" depart="560.34" departLane="best" from="-59358724#2" to="-119132981#1" type="bus"/>
    <trip id="bus130" depart="564.68" departLane="best" from="173431804" to="-59358702#1" type="bus"/>
    <trip id="bus131" depart="569.02" departLane="best" from="-479433848#1" to="557325769" type="bus"/>
    <trip id="bus132" depart="573.37" departLane="best" from="35133711#0" to="-450762933#0" type="bus"/>
    <trip id="bus133" depart="577.71" departLane="best" from="-421821814#1" to="-66079116#1" type="bus"/>
    <trip id="bus134" depart="582.06" departLane="best" from="59358888#3" to="35133687#9" type="bus"/>
    <trip id="bus135" depart="586.40" departLane="best" from="59358776" to="165400216" type="bus"/>
    <trip id="bus136" depart="590.74" departLane="best" from="-100125332" to="-40542210#0" type="bus"/>
    <trip id="bus137" depart="595.09" departLane="best" from="-59358867" to="136752734#0" type="bus"/>
    <trip id="bus138" depart="599.43" departLane="best" from="164165725" to="105317901" type="bus"/>
    <trip id="bus139" depart="603.77" departLane="best" from="-59358884#1" to="-35133687#3" type="bus"/>
    <trip id="bus140" depart="608.12" departLane="best" from="-97950273#0" to="59358826#2" type="bus"/>
    <trip id="bus141" depart="612.46" departLane="best" from="40542210#0" to="-173431817#0" type="bus"/>
    <trip id="bus142" depart="616.81" departLane="best" from="136789776" to="-59358706#0" type="bus"/>
    <trip id="bus143" depart="621.15" departLane="best" from="461556548#0" to="381455584#1" type="bus"/>
    <trip id="bus144" depart="625.49" departLane="best" from="-36327857#4" to="107218840#6" type="bus"/>
    <trip id="bus145" depart="629.84" departLane="best" from="543237965#4" to="-119132984#1" type="bus"/>
    <trip id="bus147" depart="638.52" departLane="best" from="-329620748" to="36054714#3" type="bus"/>
    <trip id="bus148" depart="642.87" departLane="best" from="105201129#3" to="-36054723#1" type="bus"/>
    <trip id="bus149" depart="647.21" departLane="best" from="165399793#2" to="-105201134#0" type="bus"/>
    <trip id="bus150" depart="651.56" departLane="best" from="36327858" to="40542210#7" type="bus"/>
    <trip id="bus152" depart="660.24" departLane="best" from="-217529738" to="82159777#6" type="bus"/>
    <trip id="bus153" depart="664.59" departLane="best" from="173431810#1" to="98192468#1" type="bus"/>
    <trip id="bus154" depart="668.93" departLane="best" from="59358753" to="165399793#3" type="bus"/>
    <trip id="bus155" depart="673.27" departLane="best" from="59358758#0" to="38109112#1" type="bus"/>
    <trip id="bus156" depart="677.62" departLane="best" from="-97950273#1" to="-36436967#5" type="bus"/>
    <trip id="bus157" depart="681.96" departLane="best" from="364688017#5" to="118004574#1" type="bus"/>
    <trip id="bus158" depart="686.30" departLane="best" from="136789237#0" to="-38109112#4" type="bus"/>
    <trip id="bus159" depart="690.65" departLane="best" from="-118926933#1" to="-401390110" type="bus"/>
    <trip id="bus160" depart="694.99" departLane="best" from="-38109036#2" to="-543273971" type="bus"/>
    <trip id="bus161" depart="699.34" departLane="best" from="346551691" to="-119132973#1" type="bus"/>
    <trip id="bus162" depart="703.68" departLane="best" from="-59358827" to="119132981#0" type="bus"/>
    <trip id="bus164" depart="712.37" departLane="best" from="-59358850#1" to="59358827" type="bus"/>
    <trip id="bus165" depart="716.71" departLane="best" from="133881868#0" to="36054714#3" type="bus"/>
    <trip id="bus166" depart="721.05" departLane="best" from="-557325769" to="385360495" type="bus"/>
    <trip id="bus167" depart="725.40" departLane="best" from="-59358850#1" to="38109113#3" type="bus"/>
    <trip id="bus168" depart="729.74" departLane="best" from="-543277821" to="35133711#2" type="bus"/>
    <trip id="bus169" depart="734.09" departLane="best" from="-59358826#2" to="-173431805" type="bus"/>
    <trip id="bus170" depart="738.43" departLane="best" from="136789083#0" to="-112994259#1" type="bus"/>
    <trip id="bus171" depart="742.77" departLane="best" from="-136787727#1" to="105201132" type="bus"/>
    <trip id="bus172" depart="747.12" departLane="best" from="-116937014#5" to="-59358808#5" type="bus"/>
    <trip id="bus173" depart="751.46" departLane="best" from="-35133687#0" to="-557201422" type="bus"/>
    <trip id="bus174" depart="755.80" departLane="best" from="36436967#5" to="-59358808#5" type="bus"/>
    <trip id="bus175" depart="760.15" departLane="best" from="36434482#10" to="543277823" type="bus"/>
    <trip id="bus177" depart="768.83" departLane="best" from="-107218840#2" to="119132978" type="bus"/>
    <trip id="bus178" depart="773.18" departLane="best" from="98581271#5" to="-59358747#2" type="bus"/>
    <trip id="bus179" depart="777.52" departLane="best" from="136792293#0" to="457146567" type="bus"/>
    <trip id="bus180" depart="781.87" departLane="best" from="66080943#3" to="-330795894#0" type="bus"/>
    <trip id="bus181" depart="786.21" departLane="best" from="-107218840#4" to="-136792697#0" type="bus"/>
    <trip id="bus182" depart="790.55" departLane="best" from="-136775502#6" to="346768561#4" type="bus"/>
    <trip id="bus183" depart="794.90" departLane="best" from="119132983" to="-35133711#0" type="bus"/>
    <trip id="bus185" depart="803.58" departLane="best" from="-450762933#2" to="35133687#9" type="bus"/>
    <trip id="bus186" depart="807.93" departLane="best" from="82159777#2" to="-59358873#0" type="bus"/>
    <trip id="bus187" depart="812.27" departLane="best" from="35133687#2" to="-126774206#4" type="bus"/>
    <trip id="bus188" depart="816.62" departLane="best" from="-126774206#7" to="420294822#0" type="bus"/>
    <trip id="bus189" depart="820.96" departLane="best" from="543237965#4" to="543277820" type="bus"/>
    <trip id="bus191" depart="829.65" departLane="best" from="346551691" to="-97860982#2" type="bus"/>
    <trip id="bus192" depart="833.99" departLane="best" from="36054715" to="93576221#2" type="bus"/>
    <trip id="bus193" depart="838.33" departLane="best" from="-38108994#8" to="543237961" type="bus"/>
    <trip id="bus194" depart="842.68" departLane="best" from="-38108994#5" to="557330602" type="bus"/>
    <trip id="bus195" depart="847.02" departLane="best" from="59358747#0" to="-36054723#1" type="bus"/>
    <trip id="bus196" depart="851.37" departLane="best" from="-59358758#1" to="-112994259#5" type="bus"/>
    <trip id="bus197" depart="855.71" departLane="best" from="-543277823" to="59358759#1" type="bus"/>
    <trip id="bus198" depart="860.05" departLane="best" from="330795894#0" to="-38109113#2" type="bus"/>
    <trip id="bus199" depart="864.40" departLane="best" from="-105201134#2" to="66080943#0" type="bus"/>
    <trip id="bus200" depart="868.74" departLane="best" from="-119132978" to="364686199#0" type="bus"/>
    <trip id="bus201" depart="873.08" departLane="best" from="-98192938#9" to="39297571#1" type="bus"/>
    <trip id="bus202" depart="877.43" departLane="best" from="26179372#0" to="241498151#1" type="bus"/>
    <trip id="bus203" depart="881.77" departLane="best" from="-119132982" to="-36054475#2" type="bus"/>
    <trip id="bus204" depart="886.11" departLane="best" from="26179372#0" to="-454707664" type="bus"/>
    <trip id="bus206" depart="894.80" departLane="best" from="36054723#1" to="-59358702#10" type="bus"/>
    <trip id="bus207" depart="899.15" departLane="best" from="346543265" to="-38109071#1" type="bus"/>
    <trip id="bus208" depart="903.49" departLane="best" from="-36434482#6" to="-136789082" type="bus"/>
    <trip id="bus209" depart="907.83" departLane="best" from="-296654962" to="-136789080#0" type="bus"/>
    <trip id="bus210" depart="912.18" departLane="best" from="-241498149" to="-35133687#7" type="bus"/>
    <trip id="bus211" depart="916.52" departLane="best" from="-98192938#10" to="364688017#6" type="bus"/>
    <trip id="bus212" depart="920.86" departLane="best" from="-385360495" to="-136752734#5" type="bus"/>
    <trip id="bus213" depart="925.21" departLane="best" from="-329620748" to="-36054712#0" type="bus"/>
    <trip id="bus214" depart="929.55" departLane="best" from="116930767#5" to="-38109112#3" type="bus"/>
    <trip id="bus215" depart="933.90" departLane="best" from="97849755#0" to="126774206#7" type="bus"/>
    <trip id="bus216" depart="938.24" departLane="best" from="27227507#6" to="-136789237#0" type="bus"/>
    <trip id="bus217" depart="942.58" departLane="best" from="59358724#1" to="136752731#5" type="bus"/>
    <trip id="bus218" depart="946.93" departLane="best" from="-241498149" to="-117916073#2" type="bus"/>
    <trip id="bus219" depart="951.27" departLane="best" from="461556554#1" to="-59358888#0" type="bus"/>
    <trip id="bus220" depart="955.61" departLane="best" from="-118926925#1" to="178923612#0" type="bus"/>
    <trip id="bus221" depart="959.96" departLane="best" from="119132981#2" to="-450762933#2" type="bus"/>
    <trip id="bus222" depart="964.30" departLane="best" from="364688017#2" to="136792293#1" type="bus"/>
    <trip id="bus223" depart="968.65" departLane="best" from="-105201129#3" to="-98193664" type="bus"/>
    <trip id="bus224" depart="972.99" departLane="best" from="346543265" to="105201129#1" type="bus"/>
    <trip id="bus225" depart="977.33" departLane="best" from="24403280#2" to="59358862" type="bus"/>
    <trip id="bus226" depart="981.68" departLane="best" from="381455584#0" to="173431810#0" type="bus"/>
    <trip id="bus227" depart="986.02" departLane="best" from="-59358858#5" to="119132982" type="bus"/>
    <trip id="bus228" depart="990.36" departLane="best" from="136790221" to="59358832" type="bus"/>
    <trip id="bus229" depart="994.71" departLane="best" from="-173431810#0" to="-454707671" type="bus"/>
    <trip id="bus231" depart="1003.39" departLane="best" from="-385360499#1" to="-136789084" type="bus"/>
    <trip id="bus232" depart="1007.74" departLane="best" from="59358897#3" to="116930768#2" type="bus"/>
    <trip id="bus233" depart="1012.08" departLane="best" from="-543237964#0" to="-36434482#10" type="bus"/>
    <trip id="bus234" depart="1016.43" departLane="best" from="-119132982" to="93576221#11" type="bus"/>
    <trip id="bus235" depart="1020.77" departLane="best" from="464465173#0" to="136752732#1" type="bus"/>
    <trip id="bus236" depart="1025.11" departLane="best" from="-116930334#1" to="385360499#1" type="bus"/>
    <trip id="bus237" depart="1029.46" departLane="best" from="-97860274" to="27227507#4" type="bus"/>
    <trip id="bus238" depart="1033.80" departLane="best" from="59358808#6" to="-241498151#0" type="bus"/>
    <trip id="bus239" depart="1038.14" departLane="best" from="133881868#0" to="217529738" type="bus"/>
    <trip id="bus240" depart="1042.49" departLane="best" from="-98581271#4" to="-136752731#3" type="bus"/>
    <trip id="bus241" depart="1046.83" departLane="best" from="173431817#0" to="59358702#4" type="bus"/>
    <trip id="bus242" depart="1051.18" departLane="best" from="-543275532" to="36054714#1" type="bus"/>
    <trip id="bus243" depart="1055.52" departLane="best" from="-385360499#1" to="61494955" type="bus"/>
    <trip id="bus244" depart="1059.86" departLane="best" from="454707664" to="126774206#1" type="bus"/>
    <trip id="bus245" depart="1064.21" departLane="best" from="-59358826#2" to="117933620#2" type="bus"/>
    <trip id="bus246" depart="1068.55" departLane="best" from="-241498153" to="-59358759#0" type="bus"/>
    <trip id="bus247" depart="1072.89" departLane="best" from="36434482#7" to="173431810#1" type="bus"/>
    <trip id="bus248" depart="1077.24" departLane="best" from="118004576#4" to="59358873#1" type="bus"/>
    <trip id="bus249" depart="1081.58" departLane="best" from="136775502#7" to="-36054717#0" type="bus"/>
    <trip id="bus250" depart="1085.93" departLane="best" from="-173431796#10" to="126774206#2" type="bus"/>
    <trip id="bus252" depart="1094.61" departLane="best" from="35133687#4" to="117916073#3" type="bus"/>
    <trip id="bus253" depart="1098.96" departLane="best" from="97860982#0" to="-36054723#1" type="bus"/>
    <trip id="bus254" depart="1103.30" departLane="best" from="118004576#8" to="-59358847" type="bus"/>
    <trip id="bus255" depart="1107.64" departLane="best" from="59358858#2" to="117916073#3" type="bus"/>
    <trip id="bus256" depart="1111.99" departLane="best" from="-38109112#2" to="461556554#21" type="bus"/>
    <trip id="bus258" depart="1120.67" departLane="best" from="105514530#2" to="543275532" type="bus"/>
    <trip id="bus259" depart="1125.02" departLane="best" from="-385360495" to="-421821813#1" type="bus"/>
    <trip id="bus261" depart="1133.71" departLane="best" from="116937014#1" to="-59358746#0" type="bus"/>
    <trip id="bus262" depart="1138.05" departLane="best" from="128510749#0" to="-36054715" type="bus"/>
    <trip id="bus263" depart="1142.39" departLane="best" from="38109036#1" to="-116930768#1" type="bus"/>
    <trip id="bus264" depart="1146.74" departLane="best" from="450762933#2" to="-59358858#3" type="bus"/>
    <trip id="bus265" depart="1151.08" departLane="best" from="173431804" to="543275532" type="bus"/>
    <trip id="bus266" depart="1155.42" departLane="best" from="-112994286" to="116937014#1" type="bus"/>
    <trip id="bus267" depart="1159.77" departLane="best" from="136752103" to="59358747#1" type="bus"/>
    <trip id="bus268" depart="1164.11" departLane="best" from="59358725#0" to="-98187584#2" type="bus"/>
    <trip id="bus269" depart="1168.46" departLane="best" from="116928408#0" to="105201129#6" type="bus"/>
    <trip id="bus270" depart="1172.80" departLane="best" from="36054475#0" to="-66080925#1" type="bus"/>
    <trip id="bus271" depart="1177.14" departLane="best" from="-97849876#2" to="93576221#8" type="bus"/>
    <trip id="bus272" depart="1181.49" departLane="best" from="-543277822" to="36054714#0" type="bus"/>
    <trip id="bus273" depart="1185.83" departLane="best" from="136792293#0" to="557330602" type="bus"/>
    <trip id="bus274" depart="1190.17" departLane="best" from="543273971" to="59358702#8" type="bus"/>
    <trip id="bus275" depart="1194.52" departLane="best" from="-59358758#1" to="-543237965#2" type="bus"/>
    <trip id="bus276" depart="1198.86" departLane="best" from="59358724#1" to="-116928408#1" type="bus"/>
    <trip id="bus277" depart="1203.21" departLane="best" from="-118004574#1" to="217529737" type="bus"/>
    <trip id="bus278" depart="1207.55" departLane="best" from="59358858#1" to="98581271#0" type="bus"/>
    <trip id="bus279" depart="1211.89" departLane="best" from="36054724#0" to="-97860982#0" type="bus"/>
    <trip id="bus280" depart="1216.24" departLane="best" from="59358724#1" to="-98192934#2" type="bus"/>
    <trip id="bus281" depart="1220.58" departLane="best" from="27227507#0" to="59358826#2" type="bus"/>
    <trip id="bus282" depart="1224.92" departLane="best" from="-116930768#0" to="461556564#3" type="bus"/>
    <trip id="bus283" depart="1229.27" departLane="best" from="-401390109" to="-59358799#0" type="bus"/>
    <trip id="bus286" depart="1242.30" departLane="best" from="-136789082" to="105201132" type="bus"/>
    <trip id="bus287" depart="1246.64" departLane="best" from="-105201132" to="479433848#1" type="bus"/>
    <trip id="bus288" depart="1250.99" departLane="best" from="59358762" to="35133687#9" type="bus"/>
    <trip id="bus289" depart="1255.33" departLane="best" from="-173431796#10" to="-98192468#2" type="bus"/>
    <trip id="bus290" depart="1259.67" departLane="best" from="-36434482#4" to="557325768" type="bus"/>
    <trip id="bus291" depart="1264.02" departLane="best" from="-98192938#0" to="-36054717#0" type="bus"/>
    <trip id="bus292" depart="1268.36" departLane="best" from="128510749#0" to="136752732#0" type="bus"/>
    <trip id="bus293" depart="1272.70" departLane="best" from="98192938#2" to="-420294820#1" type="bus"/>
    <trip id="bus294" depart="1277.05" departLane="best" from="97860274" to="330032677#1" type="bus"/>
    <trip id="bus296" depart="1285.74" departLane="best" from="241498153" to="38109112#3" type="bus"/>
    <trip id="bus297" depart="1290.08" departLane="best" from="105201134#0" to="59358827" type="bus"/>
    <trip id="bus298" depart="1294.42" departLane="best" from="136775502#3" to="-59358748#2" type="bus"/>
    <trip id="bus299" depart="1298.77" departLane="best" from="136789777" to="173431805" type="bus"/>
    <trip id="bus300" depart="1303.11" departLane="best" from="136789237#0" to="59358826#2" type="bus"/>
    <trip id="bus301" depart="1307.45" departLane="best" from="136790221" to="-454707671" type="bus"/>
    <trip id="bus302" depart="1311.80" departLane="best" from="-59358884#1" to="136752734#0" type="bus"/>
    <trip id="bus303" depart="1316.14" departLane="best" from="36054714#1" to="-136752731#1" type="bus"/>
    <trip id="bus304" depart="1320.48" departLane="best" from="-217529738" to="-136789776" type="bus"/>