<?xml version="1.0" encoding="UTF-8"?>
<!-- generated on 2018-02-01 19:06:31.925401 by $Id$ via randomTrips.py
  options: 
-->
<routes xmlns:xsi="http://www.w3.org/2001/XMLSchema-instance" xsi:noNamespaceSchemaLocation="http://sumo.dlr.de/xsd/routes_file.xsd">
    <vType id="motorcycle" speedFactor="normc(1.00,0.10,0.20,2.00)" vClass="motorcycle">
    </vType>
    <trip id="moto0" depart="0.00" departLane="best" from="-38108994#5" to="-35133712#0" type="motorcycle"/>
    <trip id="moto1" depart="4.34" departLane="best" from="36054723#0" to="346551692#1" type="motorcycle"/>
    <trip id="moto2" depart="8.69" departLane="best" from="59358753" to="-126774206#1" type="motorcycle"/>
    <trip id="moto3" depart="13.03" departLane="best" from="-59358884#1" to="-112994259#4" type="motorcycle"/>
    <trip id="moto4" depart="17.37" departLane="best" from="-35133687#7" to="116930767#2" type="motorcycle"/>
    <trip id="moto5" depart="21.72" departLane="best" from="165400216" to="119132973#2" type="motorcycle"/>
    <trip id="moto6" depart="26.06" departLane="best" from="-35133711#0" to="136752733#3" type="motorcycle"/>
    <trip id="moto7" depart="30.41" departLane="best" from="421821813#0" to="-105201134#1" type="motorcycle"/>
    <trip id="moto8" depart="34.75" departLane="best" from="420294820#1" to="36054475#3" type="motorcycle"/>
    <trip id="moto9" depart="39.09" departLane="best" from="-543277823" to="-164165725" type="motorcycle"/>
    <trip id="moto10" depart="43.44" departLane="best" from="93576221#11" to="-59358696#1" type="motorcycle"/>
    <trip id="moto11" depart="47.78" departLane="best" from="543237964#2" to="136784708#2" type="motorcycle"/>
    <trip id="moto12" depart="52.12" departLane="best" from="420294822#1" to="36434482#9" type="motorcycle"/>
    <trip id="moto13" depart="56.47" departLane="best" from="116937014#8" to="97849876#3" type="motorcycle"/>
    <trip id="moto14" depart="60.81" departLane="best" from="461556554#2" to="136789237#1" type="motorcycle"/>
    <trip id="moto15" depart="65.16" departLane="best" from="35133687#0" to="-116930767#7" type="motorcycle"/>
    <trip id="moto16" depart="69.50" departLane="best" from="-36054475#3" to="-38109115#1" type="motorcycle"/>
    <trip id="moto17" depart="73.84" departLane="best" from="-118926933#4" to="-36054712#1" type="motorcycle"/>
    <trip id="moto18" depart="78.19" departLane="best" from="-126774206#5" to="-38109036#2" type="motorcycle"/>
    <trip id="moto19" depart="82.53" departLane="best" from="-59358748#0" to="-346768561#3" type="motorcycle"/>
    <trip id="moto20" depart="86.87" departLane="best" from="-366188176#0" to="66079116#1" type="motorcycle"/>
    <trip id="moto21" depart="91.22" departLane="best" from="165399793#2" to="136787725#1" type="motorcycle"/>
    <trip id="moto22" depart="95.56" departLane="best" from="-173431813#1" to="36434482#8" type="motorcycle"/>
    <trip id="moto23" depart="99.91" departLane="best" from="-173431796#4" to="-59358808#2" type="motorcycle"/>
    <trip id="moto24" depart="104.25" departLane="best" from="98192938#10" to="173431813#0" type="motorcycle"/>
    <trip id="moto25" depart="108.59" departLane="best" from="119132973#3" to="35133687#10" type="motorcycle"/>
    <trip id="moto26" depart="112.94" departLane="best" from="-36054475#5" to="-112994272#2" type="motorcycle"/>
    <trip id="moto27" depart="117.28" departLane="best" from="-421821813#1" to="-366188176#1" type="motorcycle"/>
    <trip id="moto28" depart="121.62" departLane="best" from="173431796#6" to="-59358869#0" type="motorcycle"/>
    <trip id="moto29" depart="125.97" departLane="best" from="-364686199#1" to="-36054724#1" type="motorcycle"/>
    <trip id="moto30" depart="130.31" departLane="best" from="119132980" to="-36436967#2" type="motorcycle"/>
    <trip id="moto32" depart="139.00" departLane="best" from="-59358829" to="-35133687#8" type="motorcycle"/>
    <trip id="moto33" depart="143.34" departLane="best" from="98581271#2" to="116930767#7" type="motorcycle"/>
    <trip id="moto34" depart="147.69" departLane="best" from="-119132981#1" to="-116930768#1" type="motorcycle"/>
    <trip id="moto35" depart="152.03" departLane="best" from="385360499#0" to="-82159777#1" type="motorcycle"/>
    <trip id="moto36" depart="156.37" departLane="best" from="98193664" to="118004574#1" type="motorcycle"/>
    <trip id="moto37" depart="160.72" departLane="best" from="-105317908#1" to="36327858" type="motorcycle"/>
    <trip id="moto38" depart="165.06" departLane="best" from="26179372#0" to="118926925#1" type="motorcycle"/>
    <trip id="moto39" depart="169.40" departLane="best" from="-366188176#0" to="173431814#0" type="motorcycle"/>
    <trip id="moto40" depart="173.75" departLane="best" from="-136752731#1" to="-97849876#2" type="motorcycle"/>
    <trip id="moto41" depart="178.09" departLane="best" from="-97849876#1" to="93576221#1" type="motorcycle"/>
    <trip id="moto42" depart="182.44" departLane="best" from="59358725#1" to="-36436967#3" type="motorcycle"/>
    <trip id="moto44" depart="191.12" departLane="best" from="59358833" to="59358725#2" type="motorcycle"/>
    <trip id="moto45" depart="195.47" departLane="best" from="-39297571#1" to="173431810#1" type="motorcycle"/>
    <trip id="moto46" depart="199.81" departLane="best" from="136775502#3" to="-136792293#0" type="motorcycle"/>
    <trip id="moto47" depart="204.15" departLane="best" from="38109072#0" to="118004576#0" type="motorcycle"/>
    <trip id="moto48" depart="208.50" departLane="best" from="-100125332" to="-543237965#0" type="motorcycle"/>
    <trip id="moto49" depart="212.84" departLane="best" from="-107218840#1" to="59358888#1" type="motorcycle"/>
    <trip id="moto50" depart="217.19" departLane="best" from="-40542210#6" to="-117933620#0" type="motorcycle"/>
    <trip id="moto51" depart="221.53" departLane="best" from="-118004576#1" to="38109072#1" type="motorcycle"/>
    <trip id="moto52" depart="225.87" departLane="best" from="366188176#1" to="-136787652" type="motorcycle"/>
    <trip id="moto53" depart="230.22" departLane="best" from="-98192938#6" to="119132978" type="motorcycle"/>
    <trip id="moto54" depart="234.56" departLane="best" from="-364686199#1" to="59358732" type="motorcycle"/>
    <trip id="moto55" depart="238.90" departLane="best" from="-59358888#2" to="-346768561#7" type="motorcycle"/>
    <trip id="moto56" depart="243.25" departLane="best" from="-66081734#0" to="116937014#8" type="motorcycle"/>
    <trip id="moto57" depart="247.59" departLane="best" from="-136752733#5" to="-36054475#1" type="motorcycle"/>
    <trip id="moto58" depart="251.93" departLane="best" from="-543277822" to="136752733#2" type="motorcycle"/>
    <trip id="moto59" depart="256.28" departLane="best" from="-36054475#6" to="-35133687#9" type="motorcycle"/>
    <trip id="moto60" depart="260.62" departLane="best" from="-36054475#5" to="59358827" type="motorcycle"/>
    <trip id="moto61" depart="264.97" departLane="best" from="543470383#1" to="-118926933#4" type="motorcycle"/>
    <trip id="moto62" depart="269.31" departLane="best" from="-36054714#3" to="330032677#2" type="motorcycle"/>
    <trip id="moto63" depart="273.65" departLane="best" from="-35133687#10" to="-136787727#0" type="motorcycle"/>
    <trip id="moto64" depart="278.00" departLane="best" from="61494924#1" to="128510750#6" type="motorcycle"/>
    <trip id="moto65" depart="282.34" departLane="best" from="-98192938#3" to="40542210#3" type="motorcycle"/>
    <trip id="moto66" depart="286.68" departLane="best" from="420294822#1" to="-26179372#0" type="motorcycle"/>
    <trip id="moto67" depart="291.03" departLane="best" from="-119133765" to="-97849755#0" type="motorcycle"/>
    <trip id="moto68" depart="295.37" departLane="best" from="-59358888#3" to="105201129#6" type="motorcycle"/>
    <trip id="moto69" depart="299.72" departLane="best" from="36054715" to="346543265" type="motorcycle"/>
    <trip id="moto70" depart="304.06" departLane="best" from="98192468#0" to="-136752103" type="motorcycle"/>
    <trip id="moto72" depart="312.75" departLane="best" from="554111199" to="-36327857#1" type="motorcycle"/>
    <trip id="moto73" depart="317.09" departLane="best" from="-24403280#4" to="-98192934#1" type="motorcycle"/>
    <trip id="moto74" depart="321.43" departLane="best" from="-59358884#1" to="-38109036#3" type="motorcycle"/>
    <trip id="moto75" depart="325.78" departLane="best" from="-36327857#5" to="59358873#2" type="motorcycle"/>
    <trip id="moto76" depart="330.12" departLane="best" from="118926933#1" to="-116937014#1" type="motorcycle"/>
    <trip id="moto77" depart="334.46" departLane="best" from="98581271#4" to="543275531#1" type="motorcycle"/>
    <trip id="moto78" depart="338.81" departLane="best" from="543237965#1" to="-173431804" type="motorcycle"/>
    <trip id="moto79" depart="343.15" departLane="best" from="105201129#5" to="-35133687#1" type="motorcycle"/>
    <trip id="moto80" depart="347.50" departLane="best" from="-97849876#3" to="-82159777#2" type="motorcycle"/>
    <trip id="moto81" depart="351.84" departLane="best" from="93576221#12" to="98192938#9" type="motorcycle"/>
    <trip id="moto82" depart="356.18" departLane="best" from="119132973#1" to="36327857#2" type="motorcycle"/>
    <trip id="moto83" depart="360.53" departLane="best" from="-165399793#0" to="-401390110" type="motorcycle"/>
    <trip id="moto84" depart="364.87" departLane="best" from="-117916073#0" to="136752731#5" type="motorcycle"/>
    <trip id="moto85" depart="369.21" departLane="best" from="107218840#1" to="543470389" type="motorcycle"/>
    <trip id="moto86" depart="373.56" departLane="best" from="-165399793#3" to="93576221#5" type="motorcycle"/>
    <trip id="moto87" depart="377.90" departLane="best" from="-119132970#0" to="-24403280#0" type="motorcycle"/>
    <trip id="moto88" depart="382.25" departLane="best" from="136752732#0" to="346543268" type="motorcycle"/>
    <trip id="moto89" depart="386.59" departLane="best" from="-36054713" to="-136775502#7" type="motorcycle"/>
    <trip id="moto90" depart="390.93" departLane="best" from="136752732#0" to="136789874#0" type="motorcycle"/>
    <trip id="moto91" depart="395.28" departLane="best" from="-346543267" to="36054724#1" type="motorcycle"/>
    <trip id="moto92" depart="399.62" departLane="best" from="-36054714#3" to="-59358869#0" type="motorcycle"/>
    <trip id="moto93" depart="403.96" departLane="best" from="-421821814#0" to="38108994#3" type="motorcycle"/>
    <trip id="moto94" depart="408.31" departLane="best" from="-118004576#6" to="-98193664" type="motorcycle"/>
    <trip id="moto95" depart="412.65" departLane="best" from="98581271#3" to="98193664" type="motorcycle"/>
    <trip id="moto96" depart="417.00" departLane="best" from="-118004576#7" to="-35133687#1" type="motorcycle"/>
    <trip id="moto97" depart="421.34" departLane="best" from="-364692606" to="59358897#3" type="motorcycle"/>
    <trip id="moto98" depart="425.68" departLane="best" from="59358746#1" to="59358748#1" type="motorcycle"/>
    <trip id="moto99" depart="430.03" departLane="best" from="461556554#6" to="36054712#2" type="motorcycle"/>
    <trip id="moto100" depart="434.37" departLane="best" from="136784703" to="98192934#2" type="motorcycle"/>
    <trip id="moto101" depart="438.71" departLane="best" from="173431796#4" to="-105201134#2" type="motorcycle"/>
    <trip id="moto102" depart="443.06" departLane="best" from="454707671" to="-40542210#1" type="motorcycle"/>
    <trip id="moto103" depart="447.40" departLane="best" from="173431814#1" to="66080925#1" type="motorcycle"/>
    <trip id="moto104" depart="451.74" departLane="best" from="-136784708#2" to="-136775502#0" type="motorcycle"/>
    <trip id="moto105" depart="456.09" departLane="best" from="-38108994#2" to="136787650" type="motorcycle"/>
    <trip id="moto106" depart="460.43" departLane="best" from="36054475#2" to="-346543268" type="motorcycle"/>
    <trip id="moto107" depart="464.78" departLane="best" from="136789776" to="-36436967#4" type="motorcycle"/>
    <trip id="moto108" depart="469.12" departLane="best" from="105201134#2" to="59358827" type="motorcycle"/>
    <trip id="moto109" depart="473.46" departLane="best" from="-59358888#3" to="-38109036#1" type="motorcycle"/>
    <trip id="moto110" depart="477.81" departLane="best" from="-105201129#3" to="38109115#3" type="motorcycle"/>
    <trip id="moto111" depart="482.15" departLane="best" from="136789778" to="-36436967#1" type="motorcycle"/>
    <trip id="moto112" depart="486.49" departLane="best" from="36327857#2" to="119132981#0" type="motorcycle"/>
    <trip id="moto113" depart="490.84" departLane="best" from="-61494924#1" to="-105317901" type="motorcycle"/>
    <trip id="moto114" depart="495.18" departLane="best" from="461556554#7" to="136752731#3" type="motorcycle"/>
    <trip id="moto115" depart="499.53" departLane="best" from="-136789083#1" to="-136787651#2" type="motorcycle"/>
    <trip id="moto116" depart="503.87" departLane="best" from="59358776" to="-346768561#4" type="motorcycle"/>
    <trip id="moto117" depart="508.21" departLane="best" from="-36327857#5" to="-136752731#5" type="motorcycle"/>
    <trip id="moto118" depart="512.56" departLane="best" from="38109112#0" to="59358758#1" type="motorcycle"/>
    <trip id="moto119" depart="516.90" departLane="best" from="-164165725" to="59358888#2" type="motorcycle"/>
    <trip id="moto120" depart="521.24" departLane="best" from="421821814#0" to="59358748#4" type="motorcycle"/>
    <trip id="moto121" depart="525.59" departLane="best" from="-107218841" to="364686199#0" type="motorcycle"/>
    <trip id="moto122" depart="529.93" departLane="best" from="421821814#0" to="-366188176#0" type="motorcycle"/>
    <trip id="moto123" depart="534.28" departLane="best" from="38109115#0" to="-136752733#3" type="motorcycle"/>
    <trip id="moto124" depart="538.62" departLane="best" from="59358724#0" to="59358696#1" type="motorcycle"/>
    <trip id="moto125" depart="542.96" departLane="best" from="-35133711#3" to="461556564#0" type="motorcycle"/>
    <trip id="moto126" depart="547.31" departLane="best" from="-97950273#1" to="-420294819" type="motorcycle"/>
    <trip id="moto127" depart="551.65" departLane="best" from="401390109" to="-36054475#5" type="motorcycle"/>
    <trip id="moto128" depart="555.99" departLane="best" from="-107218840#8" to="-296654962" type="motorcycle"/>
    <trip id="moto129" depart="560.34" departLane="best" from="97950277" to="118926925#0" type="motorcycle"/>
    <trip id="moto130" depart="564.68" departLane="best" from="66080925#1" to="-136775502#0" type="motorcycle"/>
    <trip id="moto131" depart="569.02" departLane="best" from="136775502#0" to="116930768#2" type="motorcycle"/>
    <trip id="moto133" depart="577.71" departLane="best" from="-36434482#3" to="36054714#3" type="motorcycle"/>
    <trip id="moto134" depart="582.06" departLane="best" from="-105201129#1" to="59358875" type="motorcycle"/>
    <trip id="moto135" depart="586.40" departLane="best" from="117916073#1" to="36327857#4" type="motorcycle"/>
    <trip id="moto136" depart="590.74" departLane="best" from="36327857#3" to="330795894#1" type="motorcycle"/>
    <trip id="moto137" depart="595.09" departLane="best" from="173431817#0" to="-543275531#1" type="motorcycle"/>
    <trip id="moto138" depart="599.43" departLane="best" from="-420295713" to="543470376" type="motorcycle"/>
    <trip id="moto139" depart="603.77" departLane="best" from="36054475#5" to="-40542210#2" type="motorcycle"/>
    <trip id="moto140" depart="608.12" departLane="best" from="-136775502#2" to="-82072084" type="motorcycle"/>
    <trip id="moto141" depart="612.46" departLane="best" from="66080943#1" to="346768561#0" type="motorcycle"/>
    <trip id="moto142" depart="616.81" departLane="best" from="-401390110" to="119132973#6" type="motorcycle"/>
    <trip id="moto143" depart="621.15" departLane="best" from="-100125332" to="-38109113#2" type="motorcycle"/>
    <trip id="moto144" depart="625.49" departLane="best" from="173431796#5" to="105201129#4" type="motorcycle"/>
    <trip id="moto145" depart="629.84" departLane="best" from="-82159777#3" to="-35133687#1" type="motorcycle"/>
    <trip id="moto146" depart="634.18" departLane="best" from="401390110" to="-173431810#1" type="motorcycle"/>
    <trip id="moto147" depart="638.52" departLane="best" from="-119132973#4" to="116937014#5" type="motorcycle"/>
    <trip id="moto148" depart="642.87" departLane="best" from="461556548#0" to="38108994#2" type="motorcycle"/>
    <trip id="moto149" depart="647.21" departLane="best" from="217529762#0" to="-36054475#1" type="motorcycle"/>
    <trip id="moto150" depart="651.56" departLane="best" from="-330795894#0" to="-107218840#6" type="motorcycle"/>
    <trip id="moto151" depart="655.90" departLane="best" from="-36054724#0" to="105317908#5" type="motorcycle"/>
    <trip id="moto152" depart="660.24" departLane="best" from="543237965#3" to="-119132973#0" type="motorcycle"/>
    <trip id="moto153" depart="664.59" departLane="best" from="-59358867" to="173431796#1" type="motorcycle"/>
    <trip id="moto154" depart="668.93" departLane="best" from="173431796#8" to="-105201134#0" type="motorcycle"/>
    <trip id="moto155" depart="673.27" departLane="best" from="36434482#7" to="38109115#2" type="motorcycle"/>
    <trip id="moto156" depart="677.62" departLane="best" from="-178923612#1" to="93576221#2" type="motorcycle"/>
    <trip id="moto157" depart="681.96" departLane="best" from="116928408#0" to="-116937014#1" type="motorcycle"/>
    <trip id="moto158" depart="686.30" departLane="best" from="-36327857#4" to="543470379" type="motorcycle"/>
    <trip id="moto159" depart="690.65" departLane="best" from="-97860982#1" to="461556554#0" type="motorcycle"/>
    <trip id="moto160" depart="694.99" departLane="best" from="178923612#1" to="98192938#0" type="motorcycle"/>
    <trip id="moto161" depart="699.34" departLane="best" from="136752732#1" to="82159777#2" type="motorcycle"/>
    <trip id="moto162" depart="703.68" departLane="best" from="36054475#5" to="116930767#1" type="motorcycle"/>
    <trip id="moto163" depart="708.02" departLane="best" from="461556554#21" to="119132973#6" type="motorcycle"/>
    <trip id="moto164" depart="712.37" departLane="best" from="59358762" to="364692606" type="motorcycle"/>
    <trip id="moto165" depart="716.71" departLane="best" from="-36327857#1" to="173431807" type="motorcycle"/>
    <trip id="moto166" depart="721.05" departLane="best" from="366188176#1" to="117916073#3" type="motorcycle"/>
    <trip id="moto167" depart="725.40" departLane="best" from="136789083#1" to="-38108994#7" type="motorcycle"/>
    <trip id="moto168" depart="729.74" departLane="best" from="-118926933#1" to="-38109113#0" type="motorcycle"/>
    <trip id="moto169" depart="734.09" departLane="best" from="-38108994#1" to="-479433848#0" type="motorcycle"/>
    <trip id="moto170" depart="738.43" departLane="best" from="117933620#0" to="-136789087" type="motorcycle"/>
    <trip id="moto171" depart="742.77" departLane="best" from="-36054475#8" to="35133712#0" type="motorcycle"/>
    <trip id="moto172" depart="747.12" departLane="best" from="35133687#2" to="-118004576#5" type="motorcycle"/>
    <trip id="moto173" depart="751.46" departLane="best" from="-59358858#0" to="119132970#1" type="motorcycle"/>
    <trip id="moto174" depart="755.80" departLane="best" from="-59358873#1" to="-346768561#0" type="motorcycle"/>
    <trip id="moto175" depart="760.15" departLane="best" from="-59358878" to="59358827" type="motorcycle"/>
    <trip id="moto177" depart="768.83" departLane="best" from="543283936#0" to="38109113#1" type="motorcycle"/>
    <trip id="moto178" depart="773.18" departLane="best" from="-59358764#0" to="-105201134#0" type="motorcycle"/>
    <trip id="moto179" depart="777.52" departLane="best" from="-59358698" to="38108994#6" type="motorcycle"/>
    <trip id="moto180" depart="781.87" departLane="best" from="543275531#0" to="82159777#6" type="motorcycle"/>
    <trip id="moto181" depart="786.21" departLane="best" from="-59358875" to="368277496" type="motorcycle"/>
    <trip id="moto182" depart="790.55" departLane="best" from="118004576#5" to="136784708#1" type="motorcycle"/>
    <trip id="moto183" depart="794.90" departLane="best" from="-35133711#0" to="-35133687#8" type="motorcycle"/>
    <trip id="moto184" depart="799.24" departLane="best" from="-59358847" to="-173431796#6" type="motorcycle"/>
    <trip id="moto185" depart="803.58" departLane="best" from="-98192468#2" to="-136787651#3" type="motorcycle"/>
    <trip id="moto186" depart="807.93" departLane="best" from="136787727#0" to="-112994255#1" type="motorcycle"/>
    <trip id="moto187" depart="812.27" departLane="best" from="-59358808#6" to="126774206#7" type="motorcycle"/>
    <trip id="moto188" depart="816.62" departLane="best" from="-112994255#2" to="173431817#1" type="motorcycle"/>
    <trip id="moto189" depart="820.96" departLane="best" from="-136787651#0" to="100125332" type="motorcycle"/>
    <trip id="moto190" depart="825.30" departLane="best" from="364688017#3" to="-59358808#1" type="motorcycle"/>
    <trip id="moto191" depart="829.65" departLane="best" from="173431796#0" to="40341209#1" type="motorcycle"/>
    <trip id="moto192" depart="833.99" departLane="best" from="173431796#10" to="38108994#7" type="motorcycle"/>
    <trip id="moto193" depart="838.33" departLane="best" from="119132981#3" to="-35133687#6" type="motorcycle"/>
    <trip id="moto194" depart="842.68" departLane="best" from="346768561#1" to="38109113#2" type="motorcycle"/>
    <trip id="moto195" depart="847.02" departLane="best" from="-173431807" to="136787651#2" type="motorcycle"/>
    <trip id="moto196" depart="851.37" departLane="best" from="36434482#3" to="-136752736" type="motorcycle"/>
    <trip id="moto197" depart="855.71" departLane="best" from="461556548#0" to="97848147#1" type="motorcycle"/>
    <trip id="moto198" depart="860.05" departLane="best" from="-420294822#0" to="346768561#0" type="motorcycle"/>
    <trip id="moto199" depart="864.40" departLane="best" from="93576221#2" to="-59358869#1" type="motorcycle"/>
    <trip id="moto200" depart="868.74" departLane="best" from="35133712#0" to="-119132973#4" type="motorcycle"/>
    <trip id="moto201" depart="873.08" departLane="best" from="-126774206#6" to="385360495" type="motorcycle"/>
    <trip id="moto202" depart="877.43" departLane="best" from="543237965#3" to="136784703" type="motorcycle"/>
    <trip id="moto203" depart="881.77" departLane="best" from="-136752733#5" to="98192468#0" type="motorcycle"/>
    <trip id="moto204" depart="886.11" departLane="best" from="38109112#4" to="-59358725#0" type="motorcycle"/>
    <trip id="moto205" depart="890.46" departLane="best" from="107218840#5" to="-59358702#4" type="motorcycle"/>
    <trip id="moto206" depart="894.80" departLane="best" from="543237965#2" to="479245735#1" type="motorcycle"/>
    <trip id="moto207" depart="899.15" departLane="best" from="136789777" to="543237962" type="motorcycle"/>
    <trip id="moto208" depart="903.49" departLane="best" from="36054717#3" to="97848147#2" type="motorcycle"/>
    <trip id="moto209" depart="907.83" departLane="best" from="-66080943#6" to="36436967#1" type="motorcycle"/>
    <trip id="moto210" depart="912.18" departLane="best" from="-366188176#2" to="543470383#2" type="motorcycle"/>
    <trip id="moto211" depart="916.52" departLane="best" from="59358746#2" to="-36054721#2" type="motorcycle"/>
    <trip id="moto212" depart="920.86" departLane="best" from="-98187584#1" to="136787727#1" type="motorcycle"/>
    <trip id="moto213" depart="925.21" departLane="best" from="-59358759#1" to="-112994259#3" type="motorcycle"/>
    <trip id="moto214" depart="929.55" departLane="best" from="346768561#3" to="-38109036#0" type="motorcycle"/>
    <trip id="moto215" depart="933.90" departLane="best" from="-119132973#6" to="36327857#5" type="motorcycle"/>
    <trip id="moto216" depart="938.24" departLane="best" from="105201134#2" to="38109036#3" type="motorcycle"/>
    <trip id="moto217" depart="942.58" departLane="best" from="330032677#2" to="217529737" type="motorcycle"/>
    <trip id="moto218" depart="946.93" departLane="best" from="105317901" to="420295713" type="motorcycle"/>
    <trip id="moto219" depart="951.27" departLane="best" from="-119132982" to="-35133711#1" type="motorcycle"/>
    <trip id="moto220" depart="955.61" departLane="best" from="330795894#1" to="-420294820#0" type="motorcycle"/>
    <trip id="moto221" depart="959.96" departLane="best" from="128510750#8" to="105317908#1" type="motorcycle"/>
    <trip id="moto222" depart="964.30" departLane="best" from="116930768#3" to="-82159777#5" type="motorcycle"/>
    <trip id="moto223" depart="968.65" departLane="best" from="346768561#6" to="-38108994#2" type="motorcycle"/>
    <trip id="moto224" depart="972.99" departLane="best" from="-36434482#1" to="-136784703" type="motorcycle"/>
    <trip id="moto225" depart="977.33" departLane="best" from="-296654962" to="-136775502#6" type="motorcycle"/>
    <trip id="moto226" depart="981.68" departLane="best" from="116937014#7" to="38109112#1" type="motorcycle"/>
    <trip id="moto227" depart="986.02" departLane="best" from="-241498149" to="-35133687#4" type="motorcycle"/>
    <trip id="moto228" depart="990.36" departLane="best" from="105201129#3" to="36434482#14" type="motorcycle"/>
    <trip id="moto229" depart="994.71" departLane="best" from="97860982#2" to="117933620#2" type="motorcycle"/>
    <trip id="moto230" depart="999.05" departLane="best" from="-38109112#0" to="-136752731#2" type="motorcycle"/>
    <trip id="moto231" depart="1003.39" departLane="best" from="-329620748" to="-36054475#5" type="motorcycle"/>
    <trip id="moto232" depart="1007.74" departLane="best" from="-217529752#1" to="-105317908#5" type="motorcycle"/>
    <trip id="moto233" depart="1012.08" departLane="best" from="116937014#5" to="-38108994#6" type="motorcycle"/>
    <trip id="moto234" depart="1016.43" departLane="best" from="97860274" to="119132981#2" type="motorcycle"/>
    <trip id="moto235" depart="1020.77" departLane="best" from="346551692#0" to="-136787651#1" type="motorcycle"/>
    <trip id="moto236" depart="1025.11" departLane="best" from="59358702#7" to="112994259#3" type="motorcycle"/>
    <trip id="moto237" depart="1029.46" departLane="best" from="59358724#0" to="128510779#1" type="motorcycle"/>
    <trip id="moto238" depart="1033.80" departLane="best" from="-98192934#2" to="-97860982#4" type="motorcycle"/>
    <trip id="moto239" depart="1038.14" departLane="best" from="-241498149" to="-116937014#4" type="motorcycle"/>
    <trip id="moto240" depart="1042.49" departLane="best" from="66080943#2" to="107218836#0" type="motorcycle"/>
    <trip id="moto241" depart="1046.83" departLane="best" from="461556554#1" to="-59358888#0" type="motorcycle"/>
    <trip id="moto242" depart="1051.18" departLane="best" from="-116937014#5" to="-136789874#1" type="motorcycle"/>
    <trip id="moto243" depart="1055.52" departLane="best" from="119132981#1" to="-40542210#7" type="motorcycle"/>
    <trip id="moto244" depart="1059.86" departLane="best" from="98192938#7" to="-136775502#4" type="motorcycle"/>
    <trip id="moto245" depart="1064.21" departLane="best" from="381455584#0" to="-36054475#2" type="motorcycle"/>
    <trip id="moto246" depart="1068.55" departLane="best" from="116930767#0" to="-98192938#1" type="motorcycle"/>
    <trip id="moto247" depart="1072.89" departLane="best" from="98192938#2" to="-420294819" type="motorcycle"/>
    <trip id="moto248" depart="1077.24" departLane="best" from="136787725#2" to="136787725#2" type="motorcycle"/>
    <trip id="moto249" depart="1081.58" departLane="best" from="36327857#1" to="66081736" type="motorcycle"/>
    <trip id="moto250" depart="1085.93" departLane="best" from="-346768561#1" to="-346768561#6" type="motorcycle"/>
    <trip id="moto251" depart="1090.27" departLane="best" from="173431810#1" to="-165399793#1" type="motorcycle"/>
    <trip id="moto252" depart="1094.61" departLane="best" from="-173431817#1" to="-119132973#3" type="motorcycle"/>
    <trip id="moto253" depart="1098.96" departLane="best" from="-36054475#8" to="36054714#1" type="motorcycle"/>
    <trip id="moto254" depart="1103.30" departLane="best" from="173431813#0" to="59358897#3" type="motorcycle"/>
    <trip id="moto255" depart="1107.64" departLane="best" from="-59358897#1" to="119132973#2" type="motorcycle"/>
    <trip id="moto256" depart="1111.99" departLane="best" from="461556554#15" to="-119132970#0" type="motorcycle"/>
    <trip id="moto257" depart="1116.33" departLane="best" from="-173431796#8" to="-420294822#0" type="motorcycle"/>
    <trip id="moto258" depart="1120.67" departLane="best" from="36434482#4" to="128510750#3" type="motorcycle"/>
    <trip id="moto259" depart="1125.02" departLane="best" from="-38109113#2" to="-136784708#2" type="motorcycle"/>
    <trip id="moto260" depart="1129.36" departLane="best" from="329620749#3" to="36054475#5" type="motorcycle"/>
    <trip id="moto261" depart="1133.71" departLane="best" from="66080943#4" to="116928408#1" type="motorcycle"/>
    <trip id="moto262" depart="1138.05" departLane="best" from="-116928408#2" to="-97849755#2" type="motorcycle"/>
    <trip id="moto263" depart="1142.39" departLane="best" from="-479433848#1" to="-36327857#4" type="motorcycle"/>
    <trip id="moto264" depart="1146.74" departLane="best" from="-119132981#2" to="93576221#7" type="motorcycle"/>
    <trip id="moto265" depart="1151.08" departLane="best" from="82159777#1" to="98581271#5" type="motorcycle"/>
    <trip id="moto266" depart="1155.42" departLane="best" from="217529762#0" to="-38108994#0" type="motorcycle"/>
    <trip id="moto267" depart="1159.77" departLane="best" from="59358858#1" to="-217529752#2" type="motorcycle"/>
    <trip id="moto268" depart="1164.11" departLane="best" from="133881868#0" to="173431796#8" type="motorcycle"/>