<?xml version="1.0" encoding="UTF-8"?>
<!-- generated on 2018-02-01 19:06:32.918443 by $Id$ via randomTrips.py
  options: 
-->
<routes xmlns:xsi="http://www.w3.org/2001/XMLSchema-instance" xsi:noNamespaceSchemaLocation="http://sumo.dlr.de/xsd/routes_file.xsd">
    <vType id="bicycle" speedFactor="normc(1.00,0.10,0.20,2.00)" vClass="bicycle">
    </vType>
    <trip id="bike0" depart="0.00" departLane="best" from="136790221" to="-107218840#8" type="bicycle"/>
    <trip id="bike1" depart="2.88" departLane="best" from="-38108994#3" to="-36054475#2" type="bicycle"/>
    <trip id="bike2" depart="5.76" departLane="best" from="36054724#1" to="346768561#2" type="bicycle"/>
    <trip id="bike3" depart="8.64" departLane="best" from="59358752" to="-126774206#3" type="bicycle"/>
    <trip id="bike4" depart="11.51" departLane="best" from="-59358884#1" to="-112994259#5" type="bicycle"/>
    <trip id="bike5" depart="14.39" departLane="best" from="-35133711#0" to="116930767#3" type="bicycle"/>
    <trip id="bike6" depart="17.27" departLane="best" from="-112994255#1" to="-346543264" type="bicycle"/>
    <trip id="bike7" depart="20.15" departLane="best" from="173431796#2" to="119132973#4" type="bicycle"/>
    <trip id="bike8" depart="23.03" departLane="best" from="-35133711#3" to="136752734#0" type="bicycle"/>
    <trip id="bike9" depart="25.91" departLane="best" from="420294822#0" to="-105201134#1" type="bicycle"/>
    <trip id="bike10" depart="28.79" departLane="best" from="416707212" to="36054475#6" type="bicycle"/>
    <trip id="bike11" depart="31.66" departLane="best" from="-543277821" to="-165399793#2" type="bicycle"/>
    <trip id="bike12" depart="34.54" departLane="best" from="93576221#10" to="-557201422" type="bicycle"/>
    <trip id="bike13" depart="37.42" departLane="best" from="-119132983" to="-136752103" type="bicycle"/>
    <trip id="bike15" depart="43.18" departLane="best" from="416707215#0" to="36436967#3" type="bicycle"/>
    <trip id="bike16" depart="46.06" departLane="best" from="116937015" to="97849876#2" type="bicycle"/>
    <trip id="bike17" depart="48.93" departLane="best" from="-59358758#1" to="119132981#2" type="bicycle"/>
    <trip id="bike18" depart="51.81" departLane="best" from="461556554#15" to="136792293#1" type="bicycle"/>
    <trip id="bike20" depart="57.57" departLane="best" from="35133687#2" to="-116930768#0" type="bicycle"/>
    <trip id="bike21" depart="60.45" departLane="best" from="-36054475#7" to="-38109115#0" type="bicycle"/>
    <trip id="bike22" depart="63.33" departLane="best" from="-119132970#1" to="-36054714#1" type="bicycle"/>
    <trip id="bike23" depart="66.21" departLane="best" from="-126774206#7" to="-38109036#2" type="bicycle"/>
    <trip id="bike24" depart="69.08" departLane="best" from="136789779" to="-59358752" type="bicycle"/>
    <trip id="bike25" depart="71.96" departLane="best" from="-59358747#1" to="-346768561#6" type="bicycle"/>
    <trip id="bike26" depart="74.84" departLane="best" from="-364692607" to="61494924#1" type="bicycle"/>
    <trip id="bike27" depart="77.72" departLane="best" from="173431796#0" to="136787727#2" type="bicycle"/>
    <trip id="bike28" depart="80.60" departLane="best" from="-173431817#2" to="36436967#3" type="bicycle"/>
    <trip id="bike29" depart="83.48" departLane="best" from="-173431805" to="-59358805" type="bicycle"/>
    <trip id="bike30" depart="86.36" departLane="best" from="98192938#10" to="173431817#1" type="bicycle"/>
    <trip id="bike31" depart="89.23" departLane="best" from="119132973#4" to="35133687#4" type="bicycle"/>
    <trip id="bike32" depart="92.11" departLane="best" from="464465173#2" to="385360499#1" type="bicycle"/>
    <trip id="bike33" depart="94.99" departLane="best" from="-36054475#8" to="-112994272#2" type="bicycle"/>
    <trip id="bike34" depart="97.87" departLane="best" from="-420294822#1" to="-366188176#0" type="bicycle"/>
    <trip id="bike35" depart="100.75" departLane="best" from="-35133687#1" to="66080943#3" type="bicycle"/>
    <trip id="bike36" depart="103.63" departLane="best" from="59358725#0" to="-450548830" type="bicycle"/>
    <trip id="bike37" depart="106.50" departLane="best" from="173431805" to="-59358867" type="bicycle"/>
    <trip id="bike39" depart="112.26" departLane="best" from="-364692606" to="-36327857#2" type="bicycle"/>
    <trip id="bike40" depart="115.14" departLane="best" from="119132981#1" to="-364686199#0" type="bicycle"/>
    <trip id="bike41" depart="118.02" departLane="best" from="133881868#0" to="59358801" type="bicycle"/>
    <trip id="bike42" depart="120.90" departLane="best" from="-59358826#2" to="-35133711#1" type="bicycle"/>
    <trip id="bike43" depart="123.78" departLane="best" from="98581271#2" to="116930768#1" type="bicycle"/>
    <trip id="bike44" depart="126.65" departLane="best" from="-119132981#3" to="-116930768#2" type="bicycle"/>
    <trip id="bike45" depart="129.53" departLane="best" from="-136752731#1" to="173431796#10" type="bicycle"/>
    <trip id="bike46" depart="132.41" departLane="best" from="385360499#0" to="-82159777#0" type="bicycle"/>
    <trip id="bike47" depart="135.29" departLane="best" from="-117933624#1" to="-59358808#3" type="bicycle"/>
    <trip id="bike48" depart="138.17" departLane="best" from="98193664" to="118004574#1" type="bicycle"/>
    <trip id="bike49" depart="141.05" departLane="best" from="97849755#2" to="59358696#1" type="bicycle"/>
    <trip id="bike50" depart="143.93" departLane="best" from="-105317908#1" to="36434482#12" type="bicycle"/>
    <trip id="bike51" depart="146.80" departLane="best" from="27227507#4" to="118926933#0" type="bicycle"/>
    <trip id="bike52" depart="149.68" departLane="best" from="-364692607" to="178923612#0" type="bicycle"/>
    <trip id="bike53" depart="152.56" departLane="best" from="-136752731#4" to="-97849876#2" type="bicycle"/>
    <trip id="bike54" depart="155.44" departLane="best" from="-97849876#0" to="82159777#6" type="bicycle"/>
    <trip id="bike55" depart="158.32" departLane="best" from="59358724#1" to="-364686199#1" type="bicycle"/>
    <trip id="bike56" depart="161.20" departLane="best" from="107218837#0" to="-217529752#2" type="bicycle"/>
    <trip id="bike57" depart="164.08" departLane="best" from="59358826#1" to="59358724#2" type="bicycle"/>
    <trip id="bike58" depart="166.95" departLane="best" from="-39297571#0" to="173431814#1" type="bicycle"/>
    <trip id="bike59" depart="169.83" departLane="best" from="136775502#7" to="-136792697#1" type="bicycle"/>
    <trip id="bike60" depart="172.71" departLane="best" from="364692608#0" to="118926933#3" type="bicycle"/>
    <trip id="bike61" depart="175.59" departLane="best" from="38109072#0" to="118004576#1" type="bicycle"/>
    <trip id="bike62" depart="178.47" departLane="best" from="-100125332" to="-543237964#0" type="bicycle"/>
    <trip id="bike63" depart="181.35" departLane="best" from="-107218840#1" to="59358884#1" type="bicycle"/>
    <trip id="bike64" depart="184.22" departLane="best" from="59358725#2" to="543237964#0" type="bicycle"/>
    <trip id="bike65" depart="187.10" departLane="best" from="-40542210#4" to="-117933620#1" type="bicycle"/>
    <trip id="bike66" depart="189.98" departLane="best" from="59358725#1" to="66081734#0" type="bicycle"/>
    <trip id="bike67" depart="192.86" departLane="best" from="-119132974" to="107218841" type="bicycle"/>
    <trip id="bike68" depart="195.74" departLane="best" from="-118004576#2" to="38109071#0" type="bicycle"/>
    <trip id="bike69" depart="198.62" departLane="best" from="366188176#0" to="-136787725#1" type="bicycle"/>
    <trip id="bike70" depart="201.50" departLane="best" from="-98192938#6" to="119132980" type="bicycle"/>
    <trip id="bike71" depart="204.37" departLane="best" from="-364692606" to="59358725#2" type="bicycle"/>
    <trip id="bike72" depart="207.25" departLane="best" from="-59358884#1" to="-35133687#1" type="bicycle"/>
    <trip id="bike73" depart="210.13" departLane="best" from="117933620#0" to="36436967#4" type="bicycle"/>
    <trip id="bike74" depart="213.01" departLane="best" from="-346543266" to="-420295713" type="bicycle"/>
    <trip id="bike75" depart="215.89" departLane="best" from="98192938#9" to="241498149" type="bicycle"/>
    <trip id="bike76" depart="218.77" departLane="best" from="-66080943#9" to="116937015" type="bicycle"/>
    <trip id="bike77" depart="221.65" departLane="best" from="-136752734#2" to="-36054475#4" type="bicycle"/>
    <trip id="bike78" depart="224.52" departLane="best" from="-543277820" to="136752733#5" type="bicycle"/>
    <trip id="bike79" depart="227.40" departLane="best" from="-36054712#1" to="-35133711#2" type="bicycle"/>
    <trip id="bike80" depart="230.28" departLane="best" from="-118004576#6" to="173431796#6" type="bicycle"/>
    <trip id="bike81" depart="233.16" departLane="best" from="-36054475#8" to="59358826#2" type="bicycle"/>
    <trip id="bike82" depart="236.04" departLane="best" from="543283936#1" to="-119132970#0" type="bicycle"/>
    <trip id="bike83" depart="238.92" departLane="best" from="-36054717#3" to="346543263" type="bicycle"/>
    <trip id="bike84" depart="241.79" departLane="best" from="-35133687#4" to="-136789080#1" type="bicycle"/>
    <trip id="bike85" depart="244.67" departLane="best" from="61494922#0" to="128510750#8" type="bicycle"/>
    <trip id="bike86" depart="247.55" departLane="best" from="-98192938#2" to="40542210#2" type="bicycle"/>
    <trip id="bike87" depart="250.43" departLane="best" from="420294819" to="-329620749#0" type="bicycle"/>
    <trip id="bike88" depart="253.31" departLane="best" from="-126774206#2" to="-97849755#0" type="bicycle"/>
    <trip id="bike89" depart="256.19" departLane="best" from="-59358888#1" to="105201129#6" type="bicycle"/>
    <trip id="bike90" depart="259.07" departLane="best" from="36054717#0" to="346543268" type="bicycle"/>
    <trip id="bike91" depart="261.94" departLane="best" from="98192468#0" to="-136752731#1" type="bicycle"/>
    <trip id="bike92" depart="264.82" departLane="best" from="-59358832" to="-59358698" type="bicycle"/>
    <trip id="bike93" depart="267.70" departLane="best" from="543470383#0" to="-36327857#5" type="bicycle"/>
    <trip id="bike94" depart="270.58" departLane="best" from="-329620748" to="-98192934#1" type="bicycle"/>
    <trip id="bike95" depart="273.46" departLane="best" from="-59358884#1" to="-38109036#2" type="bicycle"/>
    <trip id="bike96" depart="276.34" departLane="best" from="-36434482#11" to="59358869#1" type="bicycle"/>
    <trip id="bike97" depart="279.22" departLane="best" from="-82159777#3" to="59358698" type="bicycle"/>
    <trip id="bike98" depart="282.09" departLane="best" from="118926933#2" to="-116937014#4" type="bicycle"/>
    <trip id="bike99" depart="284.97" departLane="best" from="98581271#4" to="543237965#4" type="bicycle"/>
    <trip id="bike100" depart="287.85" departLane="best" from="97849169#1" to="59358875" type="bicycle"/>
    <trip id="bike101" depart="290.73" departLane="best" from="543237964#0" to="-173431806" type="bicycle"/>
    <trip id="bike102" depart="293.61" departLane="best" from="105201129#5" to="-35133687#3" type="bicycle"/>
    <trip id="bike103" depart="296.49" departLane="best" from="-59358829" to="-117933624#0" type="bicycle"/>
    <trip id="bike104" depart="299.37" departLane="best" from="-59358758#1" to="98192468#2" type="bicycle"/>
    <trip id="bike105" depart="302.24" departLane="best" from="-364692606" to="40542210#1" type="bicycle"/>
    <trip id="bike106" depart="305.12" departLane="best" from="-97849876#2" to="-82159777#1" type="bicycle"/>
    <trip id="bike107" depart="308.00" departLane="best" from="93576221#11" to="98192938#9" type="bicycle"/>
    <trip id="bike108" depart="310.88" departLane="best" from="119132973#3" to="36327858" type="bicycle"/>
    <trip id="bike109" depart="313.76" departLane="best" from="-165399793#3" to="-401390109" type="bicycle"/>
    <trip id="bike110" depart="316.64" departLane="best" from="97849169#1" to="136752731#1" type="bicycle"/>
    <trip id="bike111" depart="319.51" departLane="best" from="118004574#0" to="366188176#1" type="bicycle"/>
    <trip id="bike112" depart="322.39" departLane="best" from="-117916073#1" to="136752732#2" type="bicycle"/>
    <trip id="bike113" depart="325.27" departLane="best" from="107218840#1" to="543470383#2" type="bicycle"/>
    <trip id="bike114" depart="328.15" departLane="best" from="-173431796#0" to="93576221#5" type="bicycle"/>
    <trip id="bike115" depart="331.03" departLane="best" from="-119132973#0" to="-24403280#4" type="bicycle"/>
    <trip id="bike116" depart="333.91" departLane="best" from="136752733#0" to="346768561#0" type="bicycle"/>
    <trip id="bike117" depart="336.79" departLane="best" from="-36054714#3" to="-136784706#0" type="bicycle"/>
    <trip id="bike118" depart="339.66" departLane="best" from="59358748#4" to="-36327857#1" type="bicycle"/>
    <trip id="bike119" depart="342.54" departLane="best" from="136752732#2" to="136792293#1" type="bicycle"/>
    <trip id="bike120" depart="345.42" departLane="best" from="-59358875" to="136752732#1" type="bicycle"/>
    <trip id="bike121" depart="348.30" departLane="best" from="116930767#1" to="59358897#3" type="bicycle"/>
    <trip id="bike122" depart="351.18" departLane="best" from="-346551692#1" to="36327857#3" type="bicycle"/>
    <trip id="bike123" depart="354.06" departLane="best" from="-36054721#0" to="-59358867" type="bicycle"/>
    <trip id="bike124" depart="356.94" departLane="best" from="241498151#1" to="-40542210#1" type="bicycle"/>
    <trip id="bike125" depart="359.81" departLane="best" from="-420295712" to="38108994#1" type="bicycle"/>
    <trip id="bike126" depart="362.69" departLane="best" from="-118004576#8" to="-98581271#0" type="bicycle"/>
    <trip id="bike127" depart="365.57" departLane="best" from="98581271#3" to="98193664" type="bicycle"/>
    <trip id="bike128" depart="368.45" departLane="best" from="-118926925#0" to="-35133687#2" type="bicycle"/>
    <trip id="bike129" depart="371.33" departLane="best" from="-364692606" to="59358897#1" type="bicycle"/>
    <trip id="bike130" depart="374.21" departLane="best" from="59358732" to="59358747#2" type="bicycle"/>
    <trip id="bike131" depart="377.08" departLane="best" from="-59358746#2" to="-173431796#0" type="bicycle"/>
    <trip id="bike132" depart="379.96" departLane="best" from="461556554#21" to="36054714#0" type="bicycle"/>
    <trip id="bike133" depart="382.84" departLane="best" from="136784706#1" to="98192934#1" type="bicycle"/>
    <trip id="bike134" depart="385.72" departLane="best" from="173431804" to="-105201134#3" type="bicycle"/>
    <trip id="bike135" depart="388.60" departLane="best" from="450762933#2" to="-40542210#0" type="bicycle"/>
    <trip id="bike136" depart="391.48" departLane="best" from="173431817#2" to="66079116#2" type="bicycle"/>
    <trip id="bike137" depart="394.36" departLane="best" from="-136787651#1" to="-136775502#2" type="bicycle"/>
    <trip id="bike139" depart="400.11" departLane="best" from="-371381441" to="136787651#2" type="bicycle"/>
    <trip id="bike140" depart="402.99" departLane="best" from="36054475#6" to="-346551692#0" type="bicycle"/>
    <trip id="bike141" depart="405.87" departLane="best" from="136789778" to="-364692605" type="bicycle"/>
    <trip id="bike142" depart="408.75" departLane="best" from="105201134#2" to="59358826#2" type="bicycle"/>
    <trip id="bike144" depart="414.51" departLane="best" from="-59358888#1" to="-38109036#0" type="bicycle"/>
    <trip id="bike145" depart="417.38" departLane="best" from="-105201129#4" to="38109115#1" type="bicycle"/>
    <trip id="bike146" depart="420.26" departLane="best" from="136789874#1" to="-36436967#5" type="bicycle"/>
    <trip id="bike147" depart="423.14" departLane="best" from="36327858" to="119132981#2" type="bicycle"/>
    <trip id="bike148" depart="426.02" departLane="best" from="-59358897#3" to="-105317901" type="bicycle"/>
    <trip id="bike149" depart="428.90" departLane="best" from="-118926933#0" to="59358748#4" type="bicycle"/>
    <trip id="bike150" depart="431.78" departLane="best" from="59358780#0" to="119132973#5" type="bicycle"/>
    <trip id="bike151" depart="434.66" departLane="best" from="461556554#22" to="136752732#0" type="bicycle"/>
    <trip id="bike152" depart="437.53" departLane="best" from="-136789874#1" to="-136787725#0" type="bicycle"/>
    <trip id="bike153" depart="440.41" departLane="best" from="-40542210#5" to="59358808#1" type="bicycle"/>
    <trip id="bike154" depart="443.29" departLane="best" from="401390109" to="59358696#1" type="bicycle"/>
    <trip id="bike155" depart="446.17" departLane="best" from="59358762" to="-346768561#7" type="bicycle"/>
    <trip id="bike156" depart="449.05" departLane="best" from="-36434482#11" to="-136752732#1" type="bicycle"/>
    <trip id="bike157" depart="451.93" departLane="best" from="38109112#0" to="59358748#5" type="bicycle"/>
    <trip id="bike158" depart="454.80" departLane="best" from="-59358847" to="164165725" type="bicycle"/>
    <trip id="bike159" depart="457.68" departLane="best" from="-165399793#3" to="59358888#1" type="bicycle"/>
    <trip id="bike160" depart="460.56" departLane="best" from="59358696#0" to="97860982#3" type="bicycle"/>
    <trip id="bike161" depart="463.44" departLane="best" from="420294822#1" to="59358748#2" type="bicycle"/>
    <trip id="bike162" depart="466.32" departLane="best" from="-107218841" to="364688017#2" type="bicycle"/>
    <trip id="bike163" depart="469.20" departLane="best" from="-543237965#2" to="59358888#2" type="bicycle"/>
    <trip id="bike164" depart="472.08" departLane="best" from="40542210#4" to="59358702#2" type="bicycle"/>
    <trip id="bike165" depart="474.95" departLane="best" from="420294822#1" to="-364692608#2" type="bicycle"/>
    <trip id="bike166" depart="477.83" departLane="best" from="38109115#0" to="-136752734#0" type="bicycle"/>
    <trip id="bike167" depart="480.71" departLane="best" from="59358702#9" to="557330602" type="bicycle"/>
    <trip id="bike168" depart="483.59" departLane="best" from="-35133712#1" to="461556554#6" type="bicycle"/>
    <trip id="bike169" depart="486.47" departLane="best" from="-97950273#0" to="-40542210#8" type="bicycle"/>
    <trip id="bike170" depart="489.35" departLane="best" from="395842276" to="-36054475#8" type="bicycle"/>
    <trip id="bike171" depart="492.23" departLane="best" from="-107218840#8" to="-330032677#0" type="bicycle"/>
    <trip id="bike172" depart="495.10" departLane="best" from="-543237962" to="59358702#2" type="bicycle"/>
    <trip id="bike173" depart="497.98" departLane="best" from="97848148#0" to="-38109036#3" type="bicycle"/>
    <trip id="bike174" depart="500.86" departLane="best" from="136792697#0" to="-59358873#1" type="bicycle"/>
    <trip id="bike175" depart="503.74" departLane="best" from="97950277" to="118926925#1" type="bicycle"/>
    <trip id="bike176" depart="506.62" departLane="best" from="66080925#0" to="-136775502#2" type="bicycle"/>
    <trip id="bike177" depart="509.50" departLane="best" from="97849755#1" to="-217529752#2" type="bicycle"/>
    <trip id="bike178" depart="512.37" departLane="best" from="93576221#7" to="-364692608#0" type="bicycle"/>
    <trip id="bike180" depart="518.13" departLane="best" from="36054717#0" to="-421821813#1" type="bicycle"/>
    <trip id="bike181" depart="521.01" departLane="best" from="136775502#2" to="116930768#3" type="bicycle"/>
    <trip id="bike183" depart="526.77" departLane="best" from="-36434482#7" to="36054721#0" type="bicycle"/>
    <trip id="bike184" depart="529.65" departLane="best" from="-105201129#1" to="59358873#2" type="bicycle"/>
    <trip id="bike185" depart="532.52" departLane="best" from="117916073#2" to="36434482#10" type="bicycle"/>
    <trip id="bike186" depart="535.40" departLane="best" from="36434482#1" to="346543264" type="bicycle"/>
    <trip id="bike187" depart="538.28" departLane="best" from="-59358725#1" to="-118926933#4" type="bicycle"/>
    <trip id="bike188" depart="541.16" departLane="best" from="178923612#0" to="-543273971" type="bicycle"/>
    <trip id="bike189" depart="544.04" departLane="best" from="-420294820#0" to="543283935" type="bicycle"/>
    <trip id="bike190" depart="546.92" departLane="best" from="36054475#9" to="-40542210#1" type="bicycle"/>
    <trip id="bike191" depart="549.80" departLane="best" from="-40542210#7" to="-61494924#0" type="bicycle"/>
    <trip id="bike192" depart="552.67" departLane="best" from="-59358832" to="-395842278" type="bicycle"/>
    <trip id="bike193" depart="555.55" departLane="best" from="-136775502#6" to="-82072084" type="bicycle"/>
    <trip id="bike194" depart="558.43" departLane="best" from="66080925#1" to="346768561#3" type="bicycle"/>
    <trip id="bike195" depart="561.31" departLane="best" from="59358780#0" to="136789237#1" type="bicycle"/>
    <trip id="bike196" depart="564.19" departLane="best" from="-395842278" to="119132974" type="bicycle"/>
    <trip id="bike197" depart="567.07" departLane="best" from="-100125332" to="-38109113#1" type="bicycle"/>
    <trip id="bike198" depart="569.95" departLane="best" from="-66079116#1" to="136752731#2" type="bicycle"/>
    <trip id="bike199" depart="572.82" departLane="best" from="173431804" to="105201129#4" type="bicycle"/>
    <trip id="bike200" depart="575.70" departLane="best" from="-82159777#1" to="-35133687#3" type="bicycle"/>
    <trip id="bike201" depart="578.58" departLane="best" from="-98192938#3" to="59358808#4" type="bicycle"/>
    <trip id="bike202" depart="581.46" departLane="best" from="395842278" to="-173431814#0" type="bicycle"/>
    <trip id="bike203" depart="584.34" departLane="best" from="-119132973#7" to="116937014#6" type="bicycle"/>
    <trip id="bike204" depart="587.22" departLane="best" from="136789777" to="-554111199" type="bicycle"/>
    <trip id="bike205" depart="590.09" departLane="best" from="454707664" to="38108994#0" type="bicycle"/>
    <trip id="bike206" depart="592.97" departLane="best" from="24403280#0" to="-36054475#4" type="bicycle"/>
    <trip id="bike207" depart="595.85" departLane="best" from="-346543263" to="-107218840#6" type="bicycle"/>
    <trip id="bike208" depart="598.73" departLane="best" from="-36327857#2" to="105514530#0" type="bicycle"/>
    <trip id="bike209" depart="601.61" departLane="best" from="543237964#1" to="-119132973#1" type="bicycle"/>
    <trip id="bike210" depart="604.49" departLane="best" from="-59358862" to="173431796#4" type="bicycle"/>
    <trip id="bike211" depart="607.37" departLane="best" from="-330032677#1" to="36054475#4" type="bicycle"/>
    <trip id="bike212" depart="610.24" departLane="best" from="105317908#4" to="-36054724#0" type="bicycle"/>
    <trip id="bike213" depart="613.12" departLane="best" from="173431806" to="-105201134#0" type="bicycle"/>
    <trip id="bike214" depart="616.00" departLane="best" from="36436967#1" to="38109115#0" type="bicycle"/>
    <trip id="bike216" depart="621.76" departLane="best" from="-217529738" to="93576221#13" type="bicycle"/>
    <trip id="bike217" depart="624.64" departLane="best" from="116928408#0" to="-116937014#2" type="bicycle"/>
    <trip id="bike218" depart="627.52" departLane="best" from="-36434482#10" to="543283935" type="bicycle"/>
    <trip id="bike219" depart="630.39" departLane="best" from="-97860274" to="450762933#2" type="bicycle"/>
    <trip id="bike220" depart="633.27" departLane="best" from="217529752#0" to="98192934#2" type="bicycle"/>
    <trip id="bike221" depart="636.15" departLane="best" from="136752733#0" to="82159777#1" type="bicycle"/>
    <trip id="bike222" depart="639.03" departLane="best" from="59358752" to="136789082" type="bicycle"/>
    <trip id="bike223" depart="641.91" departLane="best" from="36054475#8" to="116930767#2" type="bicycle"/>
    <trip id="bike224" depart="644.79" departLane="best" from="461556554#17" to="119132974" type="bicycle"/>
    <trip id="bike225" depart="647.66" departLane="best" from="59358759#0" to="364692606" type="bicycle"/>
    <trip id="bike226" depart="650.54" departLane="best" from="-98192938#5" to="-36436967#1" type="bicycle"/>
    <trip id="bike227" depart="653.42" departLane="best" from="-36327857#5" to="173431813#1" type="bicycle"/>
    <trip id="bike228" depart="656.30" departLane="best" from="366188176#0" to="117916073#3" type="bicycle"/>
    <trip id="bike229" depart="659.18" departLane="best" from="136789087" to="-38108994#6" type="bicycle"/>
    <trip id="bike230" depart="662.06" departLane="best" from="-118926933#3" to="-38109113#0" type="bicycle"/>
    <trip id="bike231" depart="664.94" departLane="best" from="-368277496" to="-454707671" type="bicycle"/>
    <trip id="bike232" depart="667.81" departLane="best" from="117933620#1" to="-136789237#1" type="bicycle"/>
    <trip id="bike233" depart="670.69" departLane="best" from="-36054713" to="36054475#0" type="bicycle"/>
    <trip id="bike234" depart="673.57" departLane="best" from="35133687#5" to="-118004576#6" type="bicycle"/>
    <trip id="bike235" depart="676.45" departLane="best" from="-59358850#1" to="119132973#1" type="bicycle"/>
    <trip id="bike236" depart="679.33" departLane="best" from="-59358867" to="-346768561#2" type="bicycle"/>
    <trip id="bike237" depart="682.21" departLane="best" from="-59358875" to="59358826#2" type="bicycle"/>
    <trip id="bike238" depart="685.09" departLane="best" from="133881868#0" to="36054475#3" type="bicycle"/>
    <trip id="bike239" depart="687.96" departLane="best" from="543275531#1" to="38109112#3" type="bicycle"/>
    <trip id="bike240" depart="690.84" departLane="best" from="-59358759#0" to="-105201134#0" type="bicycle"/>
    <trip id="bike241" depart="693.72" departLane="best" from="-557330602" to="38108994#3" type="bicycle"/>
    <trip id="bike242" depart="696.60" departLane="best" from="543237965#4" to="82159777#6" type="bicycle"/>
    <trip id="bike243" depart="699.48" departLane="best" from="-59358873#2" to="366188176#1" type="bicycle"/>
    <trip id="bike244" depart="702.36" departLane="best" from="118004576#6" to="136787651#0" type="bicycle"/>
    <trip id="bike245" depart="705.24" departLane="best" from="-35133711#3" to="-35133711#1" type="bicycle"/>
    <trip id="bike246" depart="708.11" departLane="best" from="-66080943#4" to="-112994259#4" type="bicycle"/>
    <trip id="bike247" depart="710.99" departLane="best" from="-543275531#1" to="346768561#5" type="bicycle"/>
    <trip id="bike249" depart="716.75" departLane="best" from="-98192468#1" to="-136787725#0" type="bicycle"/>
    <trip id="bike250" depart="719.63" departLane="best" from="136789080#0" to="-112994255#2" type="bicycle"/>
    <trip id="bike251" depart="722.51" departLane="best" from="-59358808#4" to="128510749#5" type="bicycle"/>
    <trip id="bike252" depart="725.38" departLane="best" from="-112994255#2" to="217529737" type="bicycle"/>
    <trip id="bike253" depart="728.26" departLane="best" from="-136787651#3" to="100125332" type="bicycle"/>
    <trip id="bike254" depart="731.14" departLane="best" from="-116937014#0" to="-59358805" type="bicycle"/>
    <trip id="bike255" depart="734.02" departLane="best" from="-35133687#10" to="-543237965#1" type="bicycle"/>
    <trip id="bike256" depart="736.90" departLane="best" from="364688017#7" to="-59358805" type="bicycle"/>
    <trip id="bike257" depart="739.78" departLane="best" from="36436967#3" to="543237964#0" type="bicycle"/>
    <trip id="bike258" depart="742.66" departLane="best" from="-36434482#3" to="-119132983" type="bicycle"/>
    <trip id="bike259" depart="745.53" departLane="best" from="-107218840#1" to="118926933#3" type="bicycle"/>
    <trip id="bike260" depart="748.41" departLane="best" from="98581271#5" to="-59358725#0" type="bicycle"/>
    <trip id="bike261" depart="751.29" departLane="best" from="173431796#2" to="401390110" type="bicycle"/>
    <trip id="bike262" depart="754.17" departLane="best" from="173431796#5" to="38108994#4" type="bicycle"/>
    <trip id="bike263" depart="757.05" departLane="best" from="82072084" to="-346543265" type="bicycle"/>
    <trip id="bike264" depart="759.93" departLane="best" from="-107218840#3" to="-136792697#1" type="bicycle"/>
    <trip id="bike265" depart="762.81" departLane="best" from="-136775502#4" to="346543263" type="bicycle"/>
    <trip id="bike266" depart="765.68" departLane="best" from="119132983" to="-35133687#9" type="bicycle"/>
    <trip id="bike267" depart="768.56" departLane="best" from="346768561#4" to="38109113#0" type="bicycle"/>
    <trip id="bike268" depart="771.44" departLane="best" from="-173431813#0" to="136787725#2" type="bicycle"/>
    <trip id="bike269" depart="774.32" departLane="best" from="36434482#7" to="-136775502#1" type="bicycle"/>
    <trip id="bike270" depart="777.20" departLane="best" from="454707671" to="97848147#0" type="bicycle"/>
    <trip id="bike272" depart="782.95" departLane="best" from="-416707215#1" to="346768561#3" type="bicycle"/>
    <trip id="bike273" depart="785.83" departLane="best" from="93576221#12" to="-59358869#0" type="bicycle"/>
    <trip id="bike274" depart="788.71" departLane="best" from="36054475#2" to="-119132973#6" type="bicycle"/>
    <trip id="bike275" depart="791.59" departLane="best" from="346543264" to="173431796#1" type="bicycle"/>
    <trip id="bike276" depart="794.47" departLane="best" from="-128510779#0" to="38109115#3" type="bicycle"/>
    <trip id="bike277" depart="797.35" departLane="best" from="543237964#2" to="136784708#0" type="bicycle"/>
    <trip id="bike278" depart="800.23" departLane="best" from="-136752734#2" to="98187584#2" type="bicycle"/>
    <trip id="bike279" depart="803.10" departLane="best" from="38109112#3" to="-59358724#0" type="bicycle"/>
    <trip id="bike280" depart="805.98" departLane="best" from="-61494924#0" to="-59358762" type="bicycle"/>
    <trip id="bike281" depart="808.86" departLane="best" from="107218840#6" to="-59358702#10" type="bicycle"/>