<?xml version="1.0" encoding="UTF-8"?>
<!-- generated on 2018-02-01 19:06:28.790174 by $Id$ via randomTrips.py
  options: 
-->
<routes xmlns:xsi="http://www.w3.org/2001/XMLSchema-instance" xsi:noNamespaceSchemaLocation="http://sumo.dlr.de/xsd/routes_file.xsd">
    <vType id="passenger" speedFactor="normc(1.00,0.10,0.20,2.00)" vClass="passenger">
    </vType>
    <trip id="veh0" depart="0.00" departLane="best" from="136789778" to="-107218840#8" type="passenger"/>
    <trip id="veh1" depart="1.45" departLane="best" from="-38109112#0" to="-36054475#5" type="passenger"/>
    <trip id="veh2" depart="2.90" departLane="best" from="36054716" to="35133687#8" type="passenger"/>
    <trip id="veh3" depart="4.34" departLane="best" from="59358753" to="-136752103" type="passenger"/>
    <trip id="veh4" depart="5.79" departLane="best" from="-59358858#2" to="-112994272#1" type="passenger"/>
    <trip id="veh5" depart="7.24" departLane="best" from="-35133711#2" to="116937014#8" type="passenger"/>
    <trip id="veh6" depart="8.69" departLane="best" from="-112994255#2" to="-330032677#2" type="passenger"/>
    <trip id="veh7" depart="10.14" departLane="best" from="136792293#0" to="119132982" type="passenger"/>
    <trip id="veh8" depart="11.58" departLane="best" from="-35133712#1" to="136784708#1" type="passenger"/>
    <trip id="veh9" depart="13.03" departLane="best" from="450762933#0" to="-105201134#0" type="passenger"/>
    <trip id="veh10" depart="14.48" departLane="best" from="421821813#0" to="36054717#2" type="passenger"/>
    <trip id="veh11" depart="15.93" departLane="best" from="-543277823" to="-165399793#2" type="passenger"/>
    <trip id="veh12" depart="17.37" departLane="best" from="82159777#0" to="-59358724#0" type="passenger"/>
    <trip id="veh13" depart="18.82" departLane="best" from="-119132982" to="-136752733#4" type="passenger"/>
    <trip id="veh14" depart="20.27" departLane="best" from="543237964#2" to="136789087" type="passenger"/>
    <trip id="veh15" depart="21.72" departLane="best" from="-59358758#1" to="126774206#4" type="passenger"/>
    <trip id="veh16" depart="23.17" departLane="best" from="461556554#22" to="173431796#4" type="passenger"/>
    <trip id="veh17" depart="24.61" departLane="best" from="59358696#0" to="136752733#2" type="passenger"/>
    <trip id="veh18" depart="26.06" departLane="best" from="-36054475#8" to="-40542210#0" type="passenger"/>
    <trip id="veh19" depart="27.51" departLane="best" from="-119132970#1" to="-36054715" type="passenger"/>
    <trip id="veh20" depart="28.96" departLane="best" from="-126774206#7" to="-38109115#0" type="passenger"/>
    <trip id="veh21" depart="30.41" departLane="best" from="136789777" to="-59358764#0" type="passenger"/>
    <trip id="veh22" depart="31.85" departLane="best" from="-59358746#0" to="-346768561#4" type="passenger"/>
    <trip id="veh23" depart="33.30" departLane="best" from="-38108994#2" to="59358884#1" type="passenger"/>
    <trip id="veh24" depart="34.75" departLane="best" from="-173431807" to="-59358808#6" type="passenger"/>
    <trip id="veh25" depart="36.20" departLane="best" from="98192934#1" to="217529762#1" type="passenger"/>
    <trip id="veh26" depart="37.65" departLane="best" from="119132973#1" to="36054475#2" type="passenger"/>
    <trip id="veh27" depart="39.09" departLane="best" from="479433848#0" to="421821814#0" type="passenger"/>
    <trip id="veh28" depart="40.54" departLane="best" from="-36054712#1" to="-112994285#1" type="passenger"/>
    <trip id="veh29" depart="41.99" departLane="best" from="-479433848#1" to="-38109036#0" type="passenger"/>
    <trip id="veh30" depart="43.44" departLane="best" from="-346768561#7" to="59358897#3" type="passenger"/>
    <trip id="veh31" depart="44.88" departLane="best" from="59358725#2" to="-543237964#2" type="passenger"/>
    <trip id="veh32" depart="46.33" departLane="best" from="165399793#1" to="-59358873#0" type="passenger"/>
    <trip id="veh33" depart="47.78" departLane="best" from="59358808#3" to="105201129#6" type="passenger"/>
    <trip id="veh34" depart="49.23" departLane="best" from="-368277496" to="-36327857#2" type="passenger"/>
    <trip id="veh35" depart="50.68" departLane="best" from="119132980" to="-38108994#0" type="passenger"/>
    <trip id="veh36" depart="52.12" departLane="best" from="133881868#0" to="59358808#3" type="passenger"/>
    <trip id="veh37" depart="53.57" departLane="best" from="-59358808#2" to="-35133711#3" type="passenger"/>
    <trip id="veh38" depart="55.02" departLane="best" from="98581271#0" to="117916073#3" type="passenger"/>
    <trip id="veh39" depart="56.47" departLane="best" from="-119132982" to="-116937014#4" type="passenger"/>
    <trip id="veh41" depart="59.36" departLane="best" from="-117933624#2" to="-59358829" type="passenger"/>
    <trip id="veh42" depart="60.81" departLane="best" from="98192938#9" to="118926925#1" type="passenger"/>
    <trip id="veh43" depart="62.26" departLane="best" from="97848147#2" to="59358706#1" type="passenger"/>
    <trip id="veh44" depart="63.71" departLane="best" from="-105201135" to="364686199#1" type="passenger"/>
    <trip id="veh45" depart="65.16" departLane="best" from="217529762#0" to="119132973#5" type="passenger"/>
    <trip id="veh47" depart="68.05" departLane="best" from="-136752731#0" to="-97860982#1" type="passenger"/>
    <trip id="veh48" depart="69.50" departLane="best" from="59358725#1" to="-38108994#1" type="passenger"/>
    <trip id="veh49" depart="70.95" departLane="best" from="105201135" to="-217529752#0" type="passenger"/>
    <trip id="veh50" depart="72.40" departLane="best" from="-40542210#2" to="217529762#1" type="passenger"/>
    <trip id="veh51" depart="73.84" departLane="best" from="136775502#7" to="-136792697#1" type="passenger"/>
    <trip id="veh52" depart="75.29" departLane="best" from="364686199#1" to="119132978" type="passenger"/>
    <trip id="veh53" depart="76.74" departLane="best" from="38109072#1" to="118926933#0" type="passenger"/>
    <trip id="veh54" depart="78.19" departLane="best" from="-105201129#0" to="-554111199" type="passenger"/>
    <trip id="veh55" depart="79.63" departLane="best" from="-107218840#2" to="59358873#2" type="passenger"/>
    <trip id="veh56" depart="81.08" departLane="best" from="59358738" to="543277823" type="passenger"/>
    <trip id="veh57" depart="82.53" departLane="best" from="-421821814#0" to="-118004576#6" type="passenger"/>
    <trip id="veh58" depart="83.98" departLane="best" from="59358732" to="66080925#0" type="passenger"/>
    <trip id="veh59" depart="85.43" departLane="best" from="-119132978" to="112994272#5" type="passenger"/>
    <trip id="veh60" depart="86.87" departLane="best" from="-118004576#1" to="39297571#1" type="passenger"/>
    <trip id="veh61" depart="88.32" departLane="best" from="364688017#5" to="-136789237#1" type="passenger"/>
    <trip id="veh62" depart="89.77" departLane="best" from="-97950273#1" to="126774206#0" type="passenger"/>
    <trip id="veh63" depart="91.22" departLane="best" from="-371381441" to="59358748#2" type="passenger"/>
    <trip id="veh64" depart="92.67" departLane="best" from="-59358858#4" to="-35133687#0" type="passenger"/>
    <trip id="veh66" depart="95.56" departLane="best" from="98192938#7" to="24403280#5" type="passenger"/>
    <trip id="veh67" depart="97.01" departLane="best" from="-59358878" to="117933624#2" type="passenger"/>
    <trip id="veh68" depart="98.46" departLane="best" from="-136752734#1" to="-36054475#7" type="passenger"/>
    <trip id="veh69" depart="99.91" departLane="best" from="-543277822" to="136784706#1" type="passenger"/>
    <trip id="veh70" depart="101.35" departLane="best" from="-36054713" to="-35133712#0" type="passenger"/>
    <trip id="veh71" depart="102.80" departLane="best" from="-118004576#5" to="217529737" type="passenger"/>
    <trip id="veh72" depart="104.25" departLane="best" from="-36054712#1" to="59358827" type="passenger"/>
    <trip id="veh73" depart="105.70" departLane="best" from="554111199" to="-119132981#3" type="passenger"/>
    <trip id="veh74" depart="107.14" departLane="best" from="-36054717#2" to="346768561#3" type="passenger"/>
    <trip id="veh75" depart="108.59" departLane="best" from="-35133687#4" to="-136789776" type="passenger"/>
    <trip id="veh77" depart="111.49" departLane="best" from="-97860982#4" to="461556554#11" type="passenger"/>
    <trip id="veh78" depart="112.94" departLane="best" from="450548830" to="-26179372#0" type="passenger"/>
    <trip id="veh79" depart="114.38" departLane="best" from="-126774206#1" to="-97849876#3" type="passenger"/>
    <trip id="veh80" depart="115.83" departLane="best" from="-59358858#5" to="105317908#5" type="passenger"/>
    <trip id="veh81" depart="117.28" departLane="best" from="36054712#0" to="35133687#2" type="passenger"/>
    <trip id="veh82" depart="118.73" departLane="best" from="97950275#0" to="-136752734#1" type="passenger"/>
    <trip id="veh83" depart="120.18" departLane="best" from="554111199" to="-36327857#5" type="passenger"/>
    <trip id="veh84" depart="121.62" departLane="best" from="-24403280#4" to="-98192938#7" type="passenger"/>
    <trip id="veh85" depart="123.07" departLane="best" from="-59358858#2" to="-38109115#1" type="passenger"/>
    <trip id="veh86" depart="124.52" departLane="best" from="-36434482#3" to="59358862" type="passenger"/>
    <trip id="veh87" depart="125.97" departLane="best" from="-59358888#2" to="59358724#1" type="passenger"/>
    <trip id="veh88" depart="127.42" departLane="best" from="98581271#4" to="543283935" type="passenger"/>
    <trip id="veh89" depart="128.86" departLane="best" from="93576221#8" to="59358863#1" type="passenger"/>
    <trip id="veh90" depart="130.31" departLane="best" from="543237965#2" to="-173431810#1" type="passenger"/>
    <trip id="veh91" depart="131.76" departLane="best" from="-98192938#3" to="-35133687#3" type="passenger"/>
    <trip id="veh92" depart="133.21" departLane="best" from="-59358808#5" to="-118004576#8" type="passenger"/>
    <trip id="veh93" depart="134.65" departLane="best" from="-59358758#1" to="97950277" type="passenger"/>
    <trip id="veh94" depart="136.10" departLane="best" from="-371381441" to="461556554#10" type="passenger"/>
    <trip id="veh95" depart="137.55" departLane="best" from="-66081734#0" to="-82159777#5" type="passenger"/>
    <trip id="veh96" depart="139.00" departLane="best" from="119132970#1" to="364686191#1" type="passenger"/>
    <trip id="veh97" depart="140.45" departLane="best" from="-165399793#3" to="-420294822#1" type="passenger"/>
    <trip id="veh98" depart="141.89" departLane="best" from="116937015" to="38109113#4" type="passenger"/>
    <trip id="veh99" depart="143.34" departLane="best" from="105317908#0" to="557330602" type="passenger"/>
    <trip id="veh100" depart="144.79" departLane="best" from="-173431796#1" to="93576221#1" type="passenger"/>
    <trip id="veh101" depart="146.24" departLane="best" from="-119132970#1" to="-24403280#1" type="passenger"/>
    <trip id="veh102" depart="147.69" departLane="best" from="136752732#1" to="35133687#5" type="passenger"/>
    <trip id="veh103" depart="149.13" departLane="best" from="-36054714#3" to="-136789080#0" type="passenger"/>
    <trip id="veh104" depart="150.58" departLane="best" from="59358752" to="-36327857#1" type="passenger"/>
    <trip id="veh105" depart="152.03" departLane="best" from="136752732#0" to="173431796#5" type="passenger"/>
    <trip id="veh106" depart="153.48" departLane="best" from="-59358850#1" to="136775502#1" type="passenger"/>
    <trip id="veh107" depart="154.93" departLane="best" from="112994272#2" to="59358878" type="passenger"/>
    <trip id="veh108" depart="156.37" departLane="best" from="-346543266" to="36436967#5" type="passenger"/>
    <trip id="veh109" depart="157.82" departLane="best" from="-36054717#3" to="-59358873#0" type="passenger"/>
    <trip id="veh110" depart="159.27" departLane="best" from="173431817#0" to="-450548830" type="passenger"/>
    <trip id="veh111" depart="160.72" departLane="best" from="-479433848#1" to="385360495" type="passenger"/>
    <trip id="veh112" depart="162.16" departLane="best" from="-118004576#8" to="105201129#6" type="passenger"/>
    <trip id="veh113" depart="163.61" departLane="best" from="-118926925#0" to="-35133687#2" type="passenger"/>
    <trip id="veh114" depart="165.06" departLane="best" from="-371381441" to="59358875" type="passenger"/>
    <trip id="veh115" depart="166.51" departLane="best" from="59358747#0" to="59358759#1" type="passenger"/>
    <trip id="veh116" depart="167.96" departLane="best" from="-59358738" to="-173431796#1" type="passenger"/>
    <trip id="veh117" depart="169.40" departLane="best" from="461556564#0" to="36327857#1" type="passenger"/>
    <trip id="veh118" depart="170.85" departLane="best" from="136784708#1" to="98192468#0" type="passenger"/>
    <trip id="veh119" depart="172.30" departLane="best" from="136792697#1" to="-105201134#3" type="passenger"/>
    <trip id="veh120" depart="173.75" departLane="best" from="457146567" to="-421821814#0" type="passenger"/>
    <trip id="veh121" depart="175.20" departLane="best" from="173431804" to="59358884#1" type="passenger"/>
    <trip id="veh123" depart="178.09" departLane="best" from="-38109036#3" to="136789874#0" type="passenger"/>
    <trip id="veh124" depart="179.54" departLane="best" from="35133687#6" to="-346551691" type="passenger"/>
    <trip id="veh125" depart="180.99" departLane="best" from="136789776" to="-38108994#2" type="passenger"/>
    <trip id="veh126" depart="182.44" departLane="best" from="-98192938#8" to="59358827" type="passenger"/>
    <trip id="veh127" depart="183.88" departLane="best" from="543237964#0" to="-136752731#5" type="passenger"/>
    <trip id="veh128" depart="185.33" departLane="best" from="-59358858#5" to="-38109113#3" type="passenger"/>
    <trip id="veh129" depart="186.78" departLane="best" from="-105201129#5" to="420294819" type="passenger"/>
    <trip id="veh130" depart="188.23" departLane="best" from="136789777" to="-366188176#2" type="passenger"/>
    <trip id="veh131" depart="189.67" departLane="best" from="36054717#0" to="126774206#4" type="passenger"/>
    <trip id="veh132" depart="191.12" departLane="best" from="-118926925#1" to="59358764#1" type="passenger"/>
    <trip id="veh133" depart="192.57" departLane="best" from="59358778" to="119132982" type="passenger"/>
    <trip id="veh134" depart="194.02" departLane="best" from="461556564#2" to="136752734#5" type="passenger"/>
    <trip id="veh135" depart="195.47" departLane="best" from="-136792293#1" to="-136789237#0" type="passenger"/>
    <trip id="veh136" depart="196.91" departLane="best" from="-421821814#1" to="59358808#5" type="passenger"/>
    <trip id="veh137" depart="198.36" departLane="best" from="40542210#0" to="59358706#1" type="passenger"/>
    <trip id="veh138" depart="199.81" departLane="best" from="-36434482#3" to="-136775502#0" type="passenger"/>
    <trip id="veh139" depart="201.26" departLane="best" from="38109112#1" to="59358764#1" type="passenger"/>
    <trip id="veh140" depart="202.71" departLane="best" from="-59358826#2" to="173431796#8" type="passenger"/>
    <trip id="veh141" depart="204.15" departLane="best" from="-165399793#3" to="59358873#2" type="passenger"/>
    <trip id="veh142" depart="205.60" departLane="best" from="59358702#10" to="97849876#1" type="passenger"/>
    <trip id="veh143" depart="207.05" departLane="best" from="450762933#1" to="59358759#1" type="passenger"/>
    <trip id="veh144" depart="208.50" departLane="best" from="-107218841" to="38108994#5" type="passenger"/>
    <trip id="veh145" depart="209.95" departLane="best" from="-543277820" to="59358873#2" type="passenger"/>
    <trip id="veh146" depart="211.39" departLane="best" from="420294820#0" to="59358724#2" type="passenger"/>
    <trip id="veh147" depart="212.84" departLane="best" from="450762933#1" to="-38108994#7" type="passenger"/>
    <trip id="veh148" depart="214.29" departLane="best" from="381455584#0" to="-136784703" type="passenger"/>
    <trip id="veh149" depart="215.74" departLane="best" from="-35133712#1" to="543237965#5" type="passenger"/>
    <trip id="veh150" depart="217.19" departLane="best" from="-82159777#6" to="-454707664" type="passenger"/>
    <trip id="veh151" depart="218.63" departLane="best" from="40542210#0" to="-36054712#0" type="passenger"/>
    <trip id="veh152" depart="220.08" departLane="best" from="-107218841" to="-329620749#0" type="passenger"/>
    <trip id="veh153" depart="221.53" departLane="best" from="-543275532" to="59358724#2" type="passenger"/>
    <trip id="veh154" depart="222.98" departLane="best" from="136789779" to="-59358884#0" type="passenger"/>
    <trip id="veh155" depart="224.42" departLane="best" from="97860982#1" to="119132973#4" type="passenger"/>
    <trip id="veh156" depart="225.87" departLane="best" from="59358888#1" to="-136787725#1" type="passenger"/>
    <trip id="veh157" depart="227.32" departLane="best" from="97848147#0" to="-217529752#0" type="passenger"/>
    <trip id="veh158" depart="228.77" departLane="best" from="93576221#0" to="-38108994#4" type="passenger"/>
    <trip id="veh160" depart="231.66" departLane="best" from="36054712#0" to="-543237964#0" type="passenger"/>
    <trip id="veh161" depart="233.11" departLane="best" from="-59358764#1" to="136752733#0" type="passenger"/>
    <trip id="veh162" depart="234.56" departLane="best" from="-36436967#2" to="36434482#12" type="passenger"/>
    <trip id="veh163" depart="236.01" departLane="best" from="-105201129#2" to="59358862" type="passenger"/>
    <trip id="veh164" depart="237.46" departLane="best" from="116937014#1" to="364686191#1" type="passenger"/>
    <trip id="veh165" depart="238.90" departLane="best" from="36054717#1" to="346768561#6" type="passenger"/>
    <trip id="veh166" depart="240.35" departLane="best" from="-59358724#2" to="-119132981#1" type="passenger"/>
    <trip id="veh167" depart="241.80" departLane="best" from="173431804" to="-59358702#1" type="passenger"/>
    <trip id="veh168" depart="243.25" departLane="best" from="-479433848#1" to="557325769" type="passenger"/>
    <trip id="veh169" depart="244.70" departLane="best" from="35133711#0" to="-450762933#0" type="passenger"/>
    <trip id="veh170" depart="246.14" departLane="best" from="-421821814#1" to="-66079116#1" type="passenger"/>
    <trip id="veh171" depart="247.59" departLane="best" from="-59358822" to="-420294822#0" type="passenger"/>
    <trip id="veh172" depart="249.04" departLane="best" from="59358888#3" to="35133687#9" type="passenger"/>
    <trip id="veh173" depart="250.49" departLane="best" from="59358776" to="165400216" type="passenger"/>
    <trip id="veh174" depart="251.93" departLane="best" from="-100125332" to="-40542210#0" type="passenger"/>
    <trip id="veh175" depart="253.38" departLane="best" from="-59358867" to="136752734#0" type="passenger"/>
    <trip id="veh176" depart="254.83" departLane="best" from="164165725" to="105317901" type="passenger"/>
    <trip id="veh177" depart="256.28" departLane="best" from="-59358884#1" to="-35133687#3" type="passenger"/>
    <trip id="veh178" depart="257.73" departLane="best" from="-97950273#0" to="59358826#2" type="passenger"/>
    <trip id="veh179" depart="259.17" departLane="best" from="40542210#0" to="-173431817#0" type="passenger"/>
    <trip id="veh180" depart="260.62" departLane="best" from="-119132974" to="117933624#1" type="passenger"/>
    <trip id="veh181" depart="262.07" departLane="best" from="136789776" to="-59358706#0" type="passenger"/>
    <trip id="veh182" depart="263.52" departLane="best" from="461556548#0" to="381455584#1" type="passenger"/>
    <trip id="veh183" depart="264.97" departLane="best" from="173431817#1" to="-36054475#7" type="passenger"/>
    <trip id="veh184" depart="266.41" departLane="best" from="-36327857#4" to="107218840#6" type="passenger"/>
    <trip id="veh185" depart="267.86" departLane="best" from="543237965#4" to="-119132984#1" type="passenger"/>
    <trip id="veh187" depart="270.76" departLane="best" from="-329620748" to="36054714#3" type="passenger"/>
    <trip id="veh188" depart="272.21" departLane="best" from="105201129#3" to="-36054723#1" type="passenger"/>
    <trip id="veh189" depart="273.65" departLane="best" from="165399793#2" to="-105201134#0" type="passenger"/>
    <trip id="veh190" depart="275.10" departLane="best" from="36327858" to="40542210#7" type="passenger"/>
    <trip id="veh192" depart="278.00" departLane="best" from="-217529738" to="82159777#6" type="passenger"/>
    <trip id="veh193" depart="279.44" departLane="best" from="112994255#0" to="-117916073#0" type="passenger"/>
    <trip id="veh194" depart="280.89" departLane="best" from="-82159777#0" to="479245735#2" type="passenger"/>
    <trip id="veh195" depart="282.34" departLane="best" from="173431810#1" to="98192468#1" type="passenger"/>
    <trip id="veh196" depart="283.79" departLane="best" from="136752732#2" to="66080943#4" type="passenger"/>
    <trip id="veh197" depart="285.24" departLane="best" from="59358753" to="165399793#3" type="passenger"/>
    <trip id="veh198" depart="286.68" departLane="best" from="461556554#4" to="119132984#0" type="passenger"/>
    <trip id="veh199" depart="288.13" departLane="best" from="59358758#0" to="38109112#1" type="passenger"/>
    <trip id="veh200" depart="289.58" departLane="best" from="-97950273#1" to="-36436967#5" type="passenger"/>
    <trip id="veh201" depart="291.03" departLane="best" from="364688017#5" to="118004574#1" type="passenger"/>
    <trip id="veh202" depart="292.48" departLane="best" from="136789237#0" to="-38109112#4" type="passenger"/>
    <trip id="veh203" depart="293.92" departLane="best" from="-118926933#1" to="-401390110" type="passenger"/>
    <trip id="veh204" depart="295.37" departLane="best" from="-38109036#2" to="-543273971" type="passenger"/>
    <trip id="veh205" depart="296.82" departLane="best" from="116937014#5" to="-136789778" type="passenger"/>
    <trip id="veh206" depart="298.27" departLane="best" from="-36054713" to="36054714#2" type="passenger"/>
    <trip id="veh207" depart="299.72" departLane="best" from="346551691" to="-119132973#1" type="passenger"/>
    <trip id="veh208" depart="301.16" departLane="best" from="-59358827" to="119132981#0" type="passenger"/>
    <trip id="veh210" depart="304.06" departLane="best" from="-59358850#1" to="59358827" type="passenger"/>
    <trip id="veh211" depart="305.51" departLane="best" from="133881868#0" to="36054714#3" type="passenger"/>
    <trip id="veh212" depart="306.95" departLane="best" from="543470376" to="40341209#1" type="passenger"/>
    <trip id="veh213" depart="308.40" departLane="best" from="-59358758#1" to="-105201134#0" type="passenger"/>
    <trip id="veh214" depart="309.85" departLane="best" from="-557325769" to="385360495" type="passenger"/>
    <trip id="veh215" depart="311.30" departLane="best" from="543275531#0" to="66081734#1" type="passenger"/>
    <trip id="veh216" depart="312.75" departLane="best" from="-59358850#1" to="38109113#3" type="passenger"/>
    <trip id="veh217" depart="314.19" departLane="best" from="-59358875" to="-112994259#6" type="passenger"/>
    <trip id="veh218" depart="315.64" departLane="best" from="-543277821" to="35133711#2" type="passenger"/>
    <trip id="veh219" depart="317.09" departLane="best" from="-59358826#2" to="-173431805" type="passenger"/>
    <trip id="veh220" depart="318.54" departLane="best" from="136789083#0" to="-112994259#1" type="passenger"/>
    <trip id="veh223" depart="322.88" departLane="best" from="-136787727#1" to="105201132" type="passenger"/>
    <trip id="veh224" depart="324.33" departLane="best" from="-116937014#5" to="-59358808#5" type="passenger"/>
    <trip id="veh225" depart="325.78" departLane="best" from="-35133687#0" to="-557201422" type="passenger"/>
    <trip id="veh226" depart="327.23" departLane="best" from="36436967#5" to="-59358808#5" type="passenger"/>
    <trip id="veh227" depart="328.67" departLane="best" from="36434482#10" to="543277823" type="passenger"/>
    <trip id="veh229" depart="331.57" departLane="best" from="-107218840#2" to="119132978" type="passenger"/>
    <trip id="veh230" depart="333.02" departLane="best" from="98581271#5" to="-59358747#2" type="passenger"/>
    <trip id="veh231" depart="334.46" departLane="best" from="136792293#0" to="457146567" type="passenger"/>
    <trip id="veh232" depart="335.91" departLane="best" from="136792697#0" to="385360499#0" type="passenger"/>
    <trip id="veh233" depart="337.36" departLane="best" from="66080943#3" to="-330795894#0" type="passenger"/>
    <trip id="veh234" depart="338.81" departLane="best" from="-107218840#4" to="-136792697#0" type="passenger"/>
    <trip id="veh235" depart="340.26" departLane="best" from="-136775502#6" to="346768561#4" type="passenger"/>
    <trip id="veh236" depart="341.70" departLane="best" from="119132983" to="-35133711#0" type="passenger"/>
    <trip id="veh237" depart="343.15" departLane="best" from="-173431813#1" to="136792293#1" type="passenger"/>
    <trip id="veh238" depart="344.60" departLane="best" from="36327857#1" to="-136787725#0" type="passenger"/>
    <trip id="veh240" depart="347.50" departLane="best" from="-450762933#2" to="35133687#9" type="passenger"/>
    <trip id="veh241" depart="348.94" departLane="best" from="82159777#2" to="-59358873#0" type="passenger"/>
    <trip id="veh242" depart="350.39" departLane="best" from="35133687#2" to="-126774206#4" type="passenger"/>
    <trip id="veh243" depart="351.84" departLane="best" from="26179372#0" to="173431814#0" type="passenger"/>
    <trip id="veh244" depart="353.29" departLane="best" from="-126774206#7" to="420294822#0" type="passenger"/>
    <trip id="veh245" depart="354.74" departLane="best" from="543237965#5" to="136789080#2" type="passenger"/>
    <trip id="veh246" depart="356.18" departLane="best" from="-136752734#2" to="97950275#0" type="passenger"/>
    <trip id="veh247" depart="357.63" departLane="best" from="38109113#1" to="-59358747#0" type="passenger"/>
    <trip id="veh248" depart="359.08" departLane="best" from="-59358862" to="-59358780#0" type="passenger"/>
    <trip id="veh249" depart="360.53" departLane="best" from="105317908#5" to="-59358725#0" type="passenger"/>
    <trip id="veh250" depart="361.98" departLane="best" from="543237965#4" to="543277820" type="passenger"/>
    <trip id="veh252" depart="364.87" departLane="best" from="136789777" to="543277822" type="passenger"/>
    <trip id="veh253" depart="366.32" departLane="best" from="346551691" to="-97860982#2" type="passenger"/>
    <trip id="veh254" depart="367.77" departLane="best" from="36054715" to="93576221#2" type="passenger"/>
    <trip id="veh255" depart="369.21" departLane="best" from="-38108994#8" to="543237961" type="passenger"/>
    <trip id="veh256" depart="370.66" departLane="best" from="116937014#0" to="112994272#1" type="passenger"/>
    <trip id="veh257" depart="372.11" departLane="best" from="-59358875" to="368277496" type="passenger"/>
    <trip id="veh258" depart="373.56" departLane="best" from="-38108994#5" to="557330602" type="passenger"/>
    <trip id="veh259" depart="375.01" departLane="best" from="461556554#4" to="-136752103" type="passenger"/>
    <trip id="veh260" depart="376.45" departLane="best" from="59358747#0" to="-36054723#1" type="passenger"/>
    <trip id="veh261" depart="377.90" departLane="best" from="-59358758#1" to="-112994259#5" type="passenger"/>
    <trip id="veh262" depart="379.35" departLane="best" from="-35133687#1" to="461556564#3" type="passenger"/>
    <trip id="veh263" depart="380.80" departLane="best" from="-543277823" to="59358759#1" type="passenger"/>
    <trip id="veh264" depart="382.25" departLane="best" from="330795894#0" to="-38109113#2" type="passenger"/>
    <trip id="veh265" depart="383.69" departLane="best" from="-105201134#2" to="66080943#0" type="passenger"/>
    <trip id="veh266" depart="385.14" departLane="best" from="-119132978" to="364686199#0" type="passenger"/>
    <trip id="veh267" depart="386.59" departLane="best" from="-98192938#9" to="39297571#1" type="passenger"/>
    <trip id="veh268" depart="388.04" departLane="best" from="26179372#0" to="241498151#1" type="passenger"/>
    <trip id="veh269" depart="389.49" departLane="best" from="-98581271#3" to="461556554#7" type="passenger"/>
    <trip id="veh270" depart="390.93" departLane="best" from="-119132982" to="-36054475#2" type="passenger"/>
    <trip id="veh271" depart="392.38" departLane="best" from="26179372#0" to="-454707664" type="passenger"/>
    <trip id="veh273" depart="395.28" departLane="best" from="36054723#1" to="-59358702#10" type="passenger"/>
    <trip id="veh274" depart="396.72" departLane="best" from="346543265" to="-38109071#1" type="passenger"/>
    <trip id="veh275" depart="398.17" departLane="best" from="-36434482#6" to="-136789082" type="passenger"/>
    <trip id="veh276" depart="399.62" departLane="best" from="-296654962" to="-136789080#0" type="passenger"/>
    <trip id="veh277" depart="401.07" departLane="best" from="116930768#0" to="401390109" type="passenger"/>
    <trip id="veh278" depart="402.52" departLane="best" from="-241498149" to="-35133687#7" type="passenger"/>
    <trip id="veh279" depart="403.96" departLane="best" from="-98192938#10" to="364688017#6" type="passenger"/>
    <trip id="veh280" depart="405.41" departLane="best" from="97849876#2" to="118004576#5" type="passenger"/>
    <trip id="veh281" depart="406.86" departLane="best" from="-385360495" to="-136752734#5" type="passenger"/>
    <trip id="veh282" depart="408.31" departLane="best" from="-329620748" to="-36054712#0" type="passenger"/>
    <trip id="veh283" depart="409.76" departLane="best" from="-217529762#1" to="-105317908#5" type="passenger"/>
    <trip id="veh284" depart="411.20" departLane="best" from="116930767#5" to="-38109112#3" type="passenger"/>