<?xml version="1.0" encoding="UTF-8"?>

<!-- generated on Thu Feb  1 19:06:26 2018 by SUMO polyconvert Version 0.32.0
<?xml version="1.0" encoding="UTF-8"?>

<configuration xmlns:xsi="http://www.w3.org/2001/XMLSchema-instance" xsi:noNamespaceSchemaLocation="http://sumo.dlr.de/xsd/polyconvertConfiguration.xsd">

    <input>
        <net-file value="/home/mtuity/Sumo/2018-02-01-19-06-20/osm.net.xml"/>
        <osm-files value="osm_bbox.osm.xml"/>
        <osm.keep-full-type value="true"/>
        <type-file value="/home/mtuity/traffic/sumo/sumo/data/typemap/osmPolyconvert.typ.xml"/>
    </input>

    <output>
        <output-file value="/home/mtuity/Sumo/2018-02-01-19-06-20/osm.poly.xml"/>
    </output>

    <processing>
        <poi-layer-offset value="5"/>
    </processing>

    <report>
        <verbose value="true"/>
    </report>

</configuration>
-->

<additional xmlns:xsi="http://www.w3.org/2001/XMLSchema-instance" xsi:noNamespaceSchemaLocation="http://sumo.dlr.de/xsd/additional_file.xsd">
    <location netOffset="-785146.16,-1434478.66" convBoundary="-532.71,-221.19,3300.99,2715.25" origBoundary="77.623528,12.960558,77.658723,12.987029" projParameter="+proj=utm +zone=43 +ellps=WGS84 +datum=WGS84 +units=m +no_defs"/>

    <poly id="105201140" type="landuse.residential" color="235,235,227" fill="1" layer="-3.00" shape="511.87,1234.88 570.96,1234.29 567.57,1199.78 578.45,1200.34 578.49,1163.59 534.52,1157.91 511.87,1234.88"/>
    <poly id="105318891" type="landuse.residential" color="235,235,227" fill="1" layer="-3.00" shape="615.08,902.73 629.88,855.15 721.73,735.13 755.63,685.21 800.36,616.54 830.92,633.11 797.01,714.00 770.22,848.64 734.45,953.15 615.08,902.73"/>
    <poly id="105318899" type="landuse.residential" color="235,235,227" fill="1" layer="-3.00" shape="589.92,851.48 512.70,675.90 527.56,620.27 678.54,622.72 608.10,857.69 589.92,851.48"/>
    <poly id="118926926" type="leisure.park" color="207,245,201" fill="1" layer="-2.00" shape="2411.07,983.34 2422.89,983.73 2438.90,846.87 2410.57,845.56 2408.99,837.06 2381.84,837.02 2411.07,983.34"/>
    <poly id="118926930" type="landuse.residential" color="235,235,227" fill="1" layer="-3.00" shape="2925.71,1040.76 2928.20,1081.26 3068.58,1066.70 3065.48,1022.53 2925.71,1040.76"/>
    <poly id="119132968" type="leisure.park" color="207,245,201" fill="1" layer="-2.00" shape="2267.23,795.06 2283.10,795.21 2273.73,745.06 2257.12,747.59 2267.23,795.06"/>
    <poly id="119132975" type="amenity.marketplace" color="237,199,199" fill="1" layer="-1.00" shape="2392.08,1119.67 2408.70,1118.93 2410.52,1109.44 2389.30,1106.33 2388.29,1120.46 2392.08,1119.67"/>
    <poly id="119132977" type="leisure.park" color="207,245,201" fill="1" layer="-2.00" shape="2565.08,830.12 2571.50,830.14 2523.13,636.05 2514.66,638.58 2536.27,716.93 2558.07,803.42 2565.08,830.12"/>
    <poly id="128510776" type="amenity.school" color="237,199,199" fill="1" layer="-1.00" shape="2037.77,704.55 1994.16,702.52 1992.27,702.39 1990.03,798.13 1998.19,798.40 2029.71,799.42 2037.77,704.55"/>
    <poly id="138223660" type="amenity.college" color="237,199,199" fill="1" layer="-1.00" shape="972.20,1061.97 1052.09,1089.92 1106.80,1093.38 1111.34,998.20 979.75,988.80 972.20,1061.97"/>
    <poly id="138980173" type="waterway.canal" color="181,209,209" fill="0" layer="-4.00" shape="15.30,1701.45 196.91,1595.08 265.29,1560.61 327.05,1535.32 334.56,1530.77 356.06,1523.59 365.47,1514.42 373.92,1508.95 395.25,1477.74 457.03,1378.38 498.06,1234.95"/>
    <poly id="142374613" type="landuse.residential" color="235,235,227" fill="1" layer="-3.00" shape="409.27,992.74 500.58,990.19 502.22,944.77 408.90,942.67 409.27,992.74"/>
    <poly id="147545746" type="building.hospital" color="255,230,230" fill="1" layer="-1.00" shape="883.30,933.19 899.98,934.76 899.27,942.26 906.83,942.97 908.69,923.39 923.15,924.75 924.40,911.72 893.92,908.86 894.26,905.32 886.02,904.55 883.30,933.19"/>
    <poly id="147545759" type="building.hospital" color="255,230,230" fill="1" layer="-1.00" shape="926.33,985.05 927.26,972.00 953.09,973.83 952.15,986.87 926.33,985.05"/>
    <poly id="147545766" type="building.hospital" color="255,230,230" fill="1" layer="-1.00" shape="928.09,957.53 929.46,939.79 957.20,941.91 955.82,959.66 933.91,957.98 928.09,957.53"/>
    <poly id="147545774" type="building.hospital" color="255,230,230" fill="1" layer="-1.00" shape="878.18,986.35 885.73,986.95 886.03,983.18 918.17,985.70 919.33,971.14 904.71,969.99 905.67,957.89 880.59,955.91 878.18,986.35"/>
    <poly id="147545786" type="building.hospital" color="255,230,230" fill="1" layer="-1.00" shape="930.90,925.21 931.58,912.73 958.16,914.17 957.47,926.66 930.90,925.21"/>
    <poly id="147545800" type="building.hospital" color="255,230,230" fill="1" layer="-1.00" shape="869.04,1004.61 878.15,892.09 886.32,892.74 885.96,897.12 892.91,897.67 893.39,891.79 927.66,894.54 927.35,898.38 934.06,898.91 934.32,895.67 970.56,898.57 961.74,1007.59 886.02,1001.52 886.71,992.95 877.70,992.23 876.65,1005.22 869.04,1004.61"/>
    <poly id="164137775" type="amenity.school" color="237,199,199" fill="1" layer="-1.00" shape="2412.48,825.90 2395.79,754.93 2416.61,749.56 2419.91,759.82 2409.28,762.19 2419.72,808.40 2432.08,805.65 2436.57,820.96 2412.48,825.90"/>
    <poly id="164729248" type="building.office" color="255,230,230" fill="1" layer="-1.00" shape="2045.22,779.94 2057.87,711.06 2085.75,715.36 2067.72,785.23 2045.22,779.94"/>
    <poly id="169709339" type="leisure.park" color="207,245,201" fill="1" layer="-2.00" shape="532.33,826.72 574.66,844.28 547.16,789.89 532.33,826.72"/>
    <poly id="185965719" type="building.yes" color="255,230,230" fill="1" layer="-1.00" shape="2022.97,1412.62 2040.63,1413.89 2044.89,1414.24 2046.54,1393.24 2021.60,1391.31 2019.94,1412.39 2022.97,1412.62"/>
    <poly id="217536635" type="leisure.park" color="207,245,201" fill="1" layer="-2.00" shape="1111.34,998.20 1114.75,945.51 983.38,935.74 979.75,988.80 1111.34,998.20"/>
    <poly id="217565211" type="natural.water" color="181,209,209" fill="1" layer="-4.00" shape="597.35,895.76 615.08,902.73 670.23,712.17 674.76,700.55 727.29,506.63 748.27,419.77 799.78,354.67 813.03,341.83 856.79,294.56 889.80,259.33 1005.91,135.36 1065.26,70.94 1058.69,58.60 802.32,333.20 763.29,379.31 731.08,419.42 715.94,481.35 678.54,622.72 608.10,857.69 597.35,895.76"/>
    <poly id="241498154" type="amenity.place_of_worship" color="237,199,199" fill="1" layer="-1.00" shape="2449.18,1293.41 2438.07,1251.85 2484.92,1231.61 2495.96,1283.36 2449.18,1293.41"/>
    <poly id="286435019" type="building.house" color="255,230,230" fill="1" layer="-1.00" shape="719.47,968.72 725.82,984.32 732.31,986.46 736.63,973.55 719.47,968.72"/>
    <poly id="286435021" type="building.commercial" color="255,230,230" fill="1" layer="-1.00" shape="840.02,836.32 838.88,851.64 852.64,852.65 853.79,837.34 840.02,836.32"/>
    <poly id="313829229" type="amenity.restaurant" color="237,199,199" fill="1" layer="-1.00" shape="1562.53,872.47 1562.05,883.43 1561.82,888.58 1574.06,889.12 1574.77,873.00 1562.53,872.47"/>
    <poly id="313829229#1" type="building.yes" color="255,230,230" fill="1" layer="-1.00" shape="1562.53,872.47 1562.05,883.43 1561.82,888.58 1574.06,889.12 1574.77,873.00 1562.53,872.47"/>
    <poly id="323037304" type="amenity.theatre" color="237,199,199" fill="1" layer="-1.00" shape="2904.94,990.52 2894.31,998.97 2888.93,1009.87 2886.21,1026.49 2889.13,1036.84 2914.53,1031.10 2936.65,1027.81 2937.85,988.80 2904.94,990.52"/>
    <poly id="324206934" type="natural.water" color="181,209,209" fill="1" layer="-4.00" shape="597.35,895.76 615.08,902.73 604.25,923.88 580.91,1008.66 502.98,1250.46 476.45,1363.58 475.29,1369.67 449.25,1416.59 399.50,1485.42 395.27,1491.28 377.88,1515.33 351.24,1534.17 195.37,1605.45 111.32,1651.78 62.30,1682.95 47.82,1692.02 20.11,1709.39 -5.14,1721.97 -47.12,1740.36 -113.13,1756.42 -205.90,1773.38 -532.71,1747.31 -532.60,1736.55 -207.31,1765.00 -54.27,1733.12 -12.03,1712.64 12.12,1694.65 75.79,1655.84 186.48,1593.12 324.20,1531.20 373.20,1502.44 455.08,1376.62 489.89,1235.68 552.90,1045.15 564.90,1017.79 581.56,947.76 597.35,895.76"/>
    <poly id="330031259" type="landuse.reservoir" color="194,194,130" fill="1" layer="-3.00" shape="1733.62,1507.49 1734.00,1505.97 1734.94,1504.71 1736.30,1503.90 1737.86,1503.66 1739.40,1504.04 1740.66,1504.99 1741.48,1506.34 1741.72,1507.89 1741.33,1509.41 1740.39,1510.67 1739.03,1511.48 1737.46,1511.71 1735.94,1511.33 1734.67,1510.39 1733.86,1509.05 1733.62,1507.49"/>
    <poly id="330031500" type="amenity.school" color="237,199,199" fill="1" layer="-1.00" shape="872.07,1541.49 894.34,1536.93 924.11,1538.47 929.33,1484.46 896.59,1483.42 862.70,1484.48 868.41,1519.21 872.07,1541.49"/>
    <poly id="330057890" type="landuse.residential" color="235,235,227" fill="1" layer="-3.00" shape="1662.45,1463.90 1681.33,1464.84 1679.86,1495.58 1674.76,1495.31 1660.90,1494.64 1662.45,1463.90"/>
    <poly id="330072418" type="landuse.residential" color="235,235,227" fill="1" layer="-3.00" shape="1681.33,1464.84 1699.35,1465.75 1697.80,1496.48 1679.86,1495.58 1681.33,1464.84"/>
    <poly id="330072419" type="landuse.residential" color="235,235,227" fill="1" layer="-3.00" shape="1699.35,1465.75 1697.80,1496.48 1715.93,1497.39 1717.48,1466.65 1699.35,1465.75"/>
    <poly id="330072421" type="landuse.residential" color="235,235,227" fill="1" layer="-3.00" shape="1717.48,1466.65 1737.32,1467.65 1735.77,1498.38 1715.93,1497.39 1717.48,1466.65"/>
    <poly id="330079109" type="amenity.place_of_worship" color="237,199,199" fill="1" layer="-1.00" shape="1839.49,1446.67 1830.77,1446.24 1831.18,1438.25 1839.90,1438.70 1839.49,1446.67"/>
    <poly id="330079109#1" type="building.yes" color="255,230,230" fill="1" layer="-1.00" shape="1839.49,1446.67 1830.77,1446.24 1831.18,1438.25 1839.90,1438.70 1839.49,1446.67"/>
    <poly id="330079114" type="building.yes" color="255,230,230" fill="1" layer="-1.00" shape="1860.35,1475.63 1876.22,1476.43 1875.08,1498.86 1859.20,1498.07 1860.35,1475.63"/>
    <poly id="330079114#1" type="landuse.commercial" color="209,209,204" fill="1" layer="-3.00" shape="1860.35,1475.63 1876.22,1476.43 1875.08,1498.86 1859.20,1498.07 1860.35,1475.63"/>
    <poly id="330080738" type="building.yes" color="255,230,230" fill="1" layer="-1.00" shape="819.95,1274.60 835.71,1278.16 838.03,1268.49 821.50,1265.36 819.95,1274.60"/>
    <poly id="330471450" type="landuse.greenfield" color="242,242,204" fill="1" layer="-3.00" shape="1253.52,1435.48 1258.69,1327.08 1281.53,1328.16 1276.36,1436.55 1253.52,1435.48"/>
    <poly id="336205615" type="building.yes" color="255,230,230" fill="1" layer="-1.00" shape="899.14,1536.09 919.64,1536.87 921.42,1490.25 872.20,1488.38 871.31,1511.79 885.58,1512.34 885.94,1502.92 909.00,1503.80 908.16,1525.68 899.55,1525.36 899.14,1536.09"/>
    <poly id="340255764" type="amenity.place_of_worship" color="237,199,199" fill="1" layer="-1.00" shape="2521.96,1377.60 2536.30,1374.66 2534.01,1363.61 2519.67,1366.55 2521.96,1377.60"/>
    <poly id="340255764#1" type="building.yes" color="255,230,230" fill="1" layer="-1.00" shape="2521.96,1377.60 2536.30,1374.66 2534.01,1363.61 2519.67,1366.55 2521.96,1377.60"/>
    <poly id="340255768" type="building.yes" color="255,230,230" fill="1" layer="-1.00" shape="2911.37,1297.28 2912.29,1340.43 2914.54,1342.26 2957.38,1289.17 2955.13,1286.89 2915.75,1291.68 2911.37,1297.28"/>
    <poly id="342675783" type="building.commercial" color="255,230,230" fill="1" layer="-1.00" shape="1501.34,887.67 1502.29,868.93 1515.77,869.61 1514.81,888.35 1501.34,887.67"/>
    <poly id="342675784" type="building.commercial" color="255,230,230" fill="1" layer="-1.00" shape="1485.89,886.54 1486.96,867.90 1497.12,868.48 1496.04,887.12 1485.89,886.54"/>
    <poly id="342682672" type="building.house" color="255,230,230" fill="1" layer="-1.00" shape="1516.73,889.16 1517.50,871.25 1526.53,871.63 1525.75,889.55 1516.73,889.16"/>
    <poly id="342682673" type="building.house" color="255,230,230" fill="1" layer="-1.00" shape="1529.11,889.44 1529.88,871.52 1538.90,871.90 1538.14,889.82 1529.11,889.44"/>
    <poly id="342682674" type="building.house" color="255,230,230" fill="1" layer="-1.00" shape="1545.70,890.18 1546.46,872.27 1555.49,872.65 1554.73,890.57 1545.70,890.18"/>
    <poly id="342682676" type="building.house" color="255,230,230" fill="1" layer="-1.00" shape="1591.85,891.17 1592.62,873.26 1601.65,873.64 1600.88,891.55 1591.85,891.17"/>
    <poly id="342682677" type="building.house" color="255,230,230" fill="1" layer="-1.00" shape="1606.56,891.39 1607.32,873.47 1616.35,873.86 1615.58,891.78 1606.56,891.39"/>
    <poly id="342682678" type="building.house" color="255,230,230" fill="1" layer="-1.00" shape="1605.76,911.64 1606.53,893.73 1615.55,894.11 1614.79,912.02 1605.76,911.64"/>
    <poly id="342682679" type="building.house" color="255,230,230" fill="1" layer="-1.00" shape="1592.09,910.05 1592.86,892.13 1601.89,892.51 1601.11,910.44 1592.09,910.05"/>
    <poly id="342682680" type="building.house" color="255,230,230" fill="1" layer="-1.00" shape="1578.11,910.20 1578.87,892.28 1587.90,892.66 1587.14,910.58 1578.11,910.20"/>
    <poly id="342682681" type="building.house" color="255,230,230" fill="1" layer="-1.00" shape="1563.27,909.17 1564.04,891.26 1573.06,891.64 1572.30,909.56 1563.27,909.17"/>
    <poly id="342682682" type="building.house" color="255,230,230" fill="1" layer="-1.00" shape="1551.33,908.76 1552.10,890.85 1561.13,891.23 1560.36,909.14 1551.33,908.76"/>
    <poly id="342682683" type="building.house" color="255,230,230" fill="1" layer="-1.00" shape="1538.81,908.63 1539.57,890.72 1548.60,891.10 1547.84,909.01 1538.81,908.63"/>
    <poly id="342682684" type="building.house" color="255,230,230" fill="1" layer="-1.00" shape="1523.97,908.19 1524.74,890.28 1533.76,890.66 1532.99,908.57 1523.97,908.19"/>
    <poly id="342682685" type="building.house" color="255,230,230" fill="1" layer="-1.00" shape="1508.82,907.75 1509.60,889.82 1518.63,890.21 1517.85,908.13 1508.82,907.75"/>
    <poly id="342682686" type="building.house" color="255,230,230" fill="1" layer="-1.00" shape="1494.86,907.02 1495.62,889.10 1504.65,889.48 1503.89,907.41 1494.86,907.02"/>
    <poly id="342682687" type="building.house" color="255,230,230" fill="1" layer="-1.00" shape="1480.88,906.87 1481.65,888.96 1490.68,889.34 1489.91,907.26 1480.88,906.87"/>
    <poly id="342683103" type="building.house" color="255,230,230" fill="1" layer="-1.00" shape="1488.67,842.22 1489.96,820.53 1504.20,821.36 1502.93,843.05 1488.67,842.22"/>
    <poly id="342683105" type="building.house" color="255,230,230" fill="1" layer="-1.00" shape="1507.72,843.15 1509.00,821.47 1523.26,822.29 1521.97,843.98 1507.72,843.15"/>
    <poly id="342683106" type="building.house" color="255,230,230" fill="1" layer="-1.00" shape="1526.06,843.63 1527.35,821.94 1541.59,822.78 1540.31,844.46 1526.06,843.63"/>
    <poly id="342683107" type="building.house" color="255,230,230" fill="1" layer="-1.00" shape="1545.28,844.12 1546.56,822.43 1560.81,823.26 1559.53,844.95 1545.28,844.12"/>
    <poly id="342683108" type="building.yes" color="255,230,230" fill="1" layer="-1.00" shape="1563.91,844.60 1565.19,822.91 1579.44,823.75 1578.16,845.43 1563.91,844.60"/>
    <poly id="342683110" type="building.yes" color="255,230,230" fill="1" layer="-1.00" shape="1582.83,845.95 1584.10,824.26 1598.36,825.09 1597.07,846.79 1582.83,845.95"/>
    <poly id="342683111" type="building.yes" color="255,230,230" fill="1" layer="-1.00" shape="1601.17,846.43 1602.45,824.75 1616.69,825.58 1615.42,847.27 1601.17,846.43"/>
    <poly id="342683112" type="building.house" color="255,230,230" fill="1" layer="-1.00" shape="1622.36,851.87 1623.65,830.17 1637.90,831.00 1636.62,852.70 1622.36,851.87"/>
    <poly id="342683113" type="building.house" color="255,230,230" fill="1" layer="-1.00" shape="1621.71,823.29 1622.99,801.60 1637.25,802.42 1635.96,824.12 1621.71,823.29"/>
    <poly id="342683115" type="building.house" color="255,230,230" fill="1" layer="-1.00" shape="1509.93,818.65 1511.21,796.97 1525.47,797.80 1524.19,819.49 1509.93,818.65"/>
    <poly id="342683116" type="building.house" color="255,230,230" fill="1" layer="-1.00" shape="1528.28,819.13 1529.55,797.45 1543.81,798.28 1542.52,819.96 1528.28,819.13"/>
    <poly id="342683117" type="building.house" color="255,230,230" fill="1" layer="-1.00" shape="1547.49,819.63 1548.77,797.93 1563.02,798.77 1561.75,820.46 1547.49,819.63"/>
    <poly id="342683118" type="building.house" color="255,230,230" fill="1" layer="-1.00" shape="1566.12,820.11 1567.40,798.41 1581.66,799.25 1580.37,820.94 1566.12,820.11"/>
    <poly id="342683119" type="building.house" color="255,230,230" fill="1" layer="-1.00" shape="1585.03,821.46 1586.31,799.77 1600.57,800.61 1599.29,822.29 1585.03,821.46"/>
    <poly id="342683120" type="building.house" color="255,230,230" fill="1" layer="-1.00" shape="1603.38,821.93 1604.66,800.25 1618.91,801.08 1617.62,822.77 1603.38,821.93"/>
    <poly id="342683121" type="building.house" color="255,230,230" fill="1" layer="-1.00" shape="1624.83,756.66 1626.11,734.97 1640.37,735.80 1639.09,757.50 1624.83,756.66"/>
    <poly id="342683122" type="building.house" color="255,230,230" fill="1" layer="-1.00" shape="1499.80,741.97 1500.20,735.20 1510.33,735.79 1509.28,753.55 1497.59,752.87 1498.24,741.89 1499.80,741.97"/>
    <poly id="342683123" type="building.house" color="255,230,230" fill="1" layer="-1.00" shape="1513.05,752.03 1514.34,730.34 1528.59,731.18 1527.31,752.86 1513.05,752.03"/>
    <poly id="342683124" type="building.house" color="255,230,230" fill="1" layer="-1.00" shape="1531.40,752.51 1532.68,730.82 1546.93,731.66 1545.66,753.34 1531.40,752.51"/>
    <poly id="342683125" type="building.house" color="255,230,230" fill="1" layer="-1.00" shape="1547.66,755.16 1549.08,731.15 1567.66,732.24 1566.24,756.24 1547.66,755.16"/>
    <poly id="342683126" type="building.house" color="255,230,230" fill="1" layer="-1.00" shape="1569.25,753.49 1570.52,731.79 1584.78,732.62 1583.50,754.31 1569.25,753.49"/>
    <poly id="342683128" type="building.house" color="255,230,230" fill="1" layer="-1.00" shape="1588.16,754.83 1589.44,733.15 1603.69,733.98 1602.41,755.67 1588.16,754.83"/>
    <poly id="342683129" type="building.house" color="255,230,230" fill="1" layer="-1.00" shape="1606.50,755.31 1607.79,733.63 1622.04,734.46 1620.76,756.15 1606.50,755.31"/>
    <poly id="342683131" type="building.house" color="255,230,230" fill="1" layer="-1.00" shape="1491.79,775.59 1493.08,753.90 1507.33,754.74 1506.05,776.42 1491.79,775.59"/>
    <poly id="342683132" type="building.house" color="255,230,230" fill="1" layer="-1.00" shape="1529.19,777.01 1530.47,755.31 1544.73,756.14 1543.44,777.84 1529.19,777.01"/>
    <poly id="342683133" type="building.house" color="255,230,230" fill="1" layer="-1.00" shape="1510.85,776.53 1512.12,754.83 1526.38,755.67 1525.09,777.36 1510.85,776.53"/>
    <poly id="342683135" type="building.house" color="255,230,230" fill="1" layer="-1.00" shape="1567.04,777.97 1568.32,756.29 1582.56,757.12 1581.28,778.81 1567.04,777.97"/>
    <poly id="342683136" type="building.house" color="255,230,230" fill="1" layer="-1.00" shape="1585.95,779.33 1587.23,757.64 1601.48,758.47 1600.21,780.17 1585.95,779.33"/>
    <poly id="342683137" type="building.house" color="255,230,230" fill="1" layer="-1.00" shape="1604.29,779.81 1605.57,758.11 1619.83,758.95 1618.54,780.64 1604.29,779.81"/>
    <poly id="342683138" type="building.house" color="255,230,230" fill="1" layer="-1.00" shape="1622.63,781.15 1623.90,759.47 1638.15,760.30 1636.87,781.98 1622.63,781.15"/>
    <poly id="343442790" type="building.yes" color="255,230,230" fill="1" layer="-1.00" shape="1565.36,1163.92 1578.70,1164.80 1579.20,1157.30 1565.86,1156.42 1565.36,1163.92"/>
    <poly id="343442791" type="building.yes" color="255,230,230" fill="1" layer="-1.00" shape="1565.87,1191.77 1578.41,1192.51 1579.05,1181.87 1566.51,1181.13 1565.87,1191.77"/>
    <poly id="343442792" type="building.yes" color="255,230,230" fill="1" layer="-1.00" shape="1583.87,1181.22 1583.29,1190.81 1597.00,1191.63 1597.57,1182.04 1583.87,1181.22"/>
    <poly id="343442793" type="building.yes" color="255,230,230" fill="1" layer="-1.00" shape="1585.46,1171.21 1584.96,1179.52 1599.48,1180.39 1599.98,1172.08 1585.46,1171.21"/>
    <poly id="343442794" type="building.yes" color="255,230,230" fill="1" layer="-1.00" shape="1566.63,1168.86 1566.15,1176.67 1579.45,1177.46 1579.92,1169.65 1566.63,1168.86"/>
    <poly id="343442795" type="building.yes" color="255,230,230" fill="1" layer="-1.00" shape="1583.93,1159.53 1583.41,1168.10 1600.47,1169.12 1600.99,1160.54 1583.93,1159.53"/>
    <poly id="343442796" type="building.yes" color="255,230,230" fill="1" layer="-1.00" shape="1567.93,1144.41 1567.28,1154.29 1581.36,1155.21 1582.01,1145.34 1567.93,1144.41"/>
    <poly id="343442797" type="building.yes" color="255,230,230" fill="1" layer="-1.00" shape="1586.98,1148.38 1586.41,1157.61 1602.69,1158.59 1603.24,1149.35 1586.98,1148.38"/>
    <poly id="343442803" type="building.yes" color="255,230,230" fill="1" layer="-1.00" shape="1589.10,1111.26 1588.42,1121.46 1602.95,1122.40 1603.63,1112.20 1589.10,1111.26"/>
    <poly id="343442805" type="building.yes" color="255,230,230" fill="1" layer="-1.00" shape="1572.45,1096.25 1571.86,1105.24 1586.72,1106.22 1587.32,1097.22 1572.45,1096.25"/>
    <poly id="343442806" type="building.yes" color="255,230,230" fill="1" layer="-1.00" shape="1590.50,1099.46 1589.88,1108.90 1603.03,1109.76 1603.66,1100.33 1590.50,1099.46"/>
    <poly id="343442807" type="building.yes" color="255,230,230" fill="1" layer="-1.00" shape="1571.93,1083.17 1571.31,1092.44 1588.60,1093.57 1589.22,1084.30 1571.93,1083.17"/>
    <poly id="343442808" type="building.yes" color="255,230,230" fill="1" layer="-1.00" shape="1591.39,1085.10 1590.68,1095.85 1605.91,1096.85 1606.62,1086.10 1591.39,1085.10"/>
    <poly id="343442809" type="building.yes" color="255,230,230" fill="1" layer="-1.00" shape="1573.59,1059.85 1572.83,1071.18 1589.00,1072.24 1589.75,1060.91 1573.59,1059.85"/>
    <poly id="343442810" type="building.yes" color="255,230,230" fill="1" layer="-1.00" shape="1591.20,1060.52 1590.44,1072.14 1606.08,1073.16 1606.86,1061.55 1591.20,1060.52"/>
    <poly id="343442811" type="building.yes" color="255,230,230" fill="1" layer="-1.00" shape="1571.09,1072.53 1570.48,1081.54 1605.04,1083.79 1605.63,1074.78 1571.09,1072.53"/>
    <poly id="343451179" type="building.yes" color="255,230,230" fill="1" layer="-1.00" shape="1384.15,1534.06 1407.50,1535.22 1408.17,1522.03 1384.81,1520.87 1384.15,1534.06"/>
    <poly id="343452013" type="building.yes" color="255,230,230" fill="1" layer="-1.00" shape="1415.88,1495.91 1415.02,1512.89 1430.10,1513.65 1430.96,1496.66 1415.88,1495.91"/>
    <poly id="343452014" type="building.yes" color="255,230,230" fill="1" layer="-1.00" shape="1388.30,1473.56 1387.48,1489.85 1406.37,1490.80 1407.20,1474.50 1388.30,1473.56"/>
    <poly id="343452015" type="building.yes" color="255,230,230" fill="1" layer="-1.00" shape="1414.01,1476.17 1413.12,1493.68 1428.13,1494.43 1429.01,1476.93 1414.01,1476.17"/>
    <poly id="343452016" type="building.yes" color="255,230,230" fill="1" layer="-1.00" shape="1386.41,1494.09 1385.35,1515.00 1405.83,1516.03 1406.90,1495.12 1386.41,1494.09"/>
    <poly id="343452017" type="building.yes" color="255,230,230" fill="1" layer="-1.00" shape="1391.53,1470.46 1412.44,1471.51 1413.02,1459.99 1392.10,1458.94 1391.53,1470.46"/>
    <poly id="343452020" type="building.yes" color="255,230,230" fill="1" layer="-1.00" shape="1450.94,1476.53 1450.03,1494.48 1470.64,1495.51 1471.56,1477.57 1450.94,1476.53"/>
    <poly id="343452021" type="building.yes" color="255,230,230" fill="1" layer="-1.00" shape="1450.90,1498.70 1450.25,1511.58 1464.18,1512.27 1464.49,1506.09 1470.24,1506.38 1470.57,1499.67 1450.90,1498.70"/>
    <poly id="343452024" type="building.yes" color="255,230,230" fill="1" layer="-1.00" shape="1481.13,1464.80 1480.57,1475.85 1496.97,1476.68 1497.53,1465.62 1481.13,1464.80"/>
    <poly id="343452025" type="building.yes" color="255,230,230" fill="1" layer="-1.00" shape="1447.96,1539.33 1447.32,1552.00 1466.22,1552.94 1466.86,1540.28 1447.96,1539.33"/>
    <poly id="343452027" type="building.yes" color="255,230,230" fill="1" layer="-1.00" shape="1473.20,1520.80 1472.41,1536.39 1491.77,1537.37 1492.56,1521.78 1473.20,1520.80"/>
    <poly id="343452028" type="building.yes" color="255,230,230" fill="1" layer="-1.00" shape="1448.22,1517.59 1447.36,1534.52 1468.23,1535.56 1469.09,1518.63 1448.22,1517.59"/>
    <poly id="343452031" type="building.yes" color="255,230,230" fill="1" layer="-1.00" shape="1515.19,1525.39 1514.49,1539.37 1533.46,1540.32 1534.16,1526.34 1515.19,1525.39"/>
    <poly id="343452032" type="building.yes" color="255,230,230" fill="1" layer="-1.00" shape="1536.57,1527.72 1536.05,1538.13 1552.35,1538.94 1552.87,1528.54 1536.57,1527.72"/>
    <poly id="343452033" type="building.yes" color="255,230,230" fill="1" layer="-1.00" shape="1514.65,1505.85 1513.81,1522.25 1535.28,1523.33 1536.11,1506.93 1514.65,1505.85"/>
    <poly id="343452036" type="building.yes" color="255,230,230" fill="1" layer="-1.00" shape="1513.10,1487.83 1512.37,1502.10 1531.97,1503.09 1532.69,1488.82 1513.10,1487.83"/>
    <poly id="343452037" type="building.yes" color="255,230,230" fill="1" layer="-1.00" shape="1512.76,1466.25 1511.80,1484.92 1530.82,1485.89 1531.78,1467.21 1512.76,1466.25"/>
    <poly id="343452038" type="building.yes" color="255,230,230" fill="1" layer="-1.00" shape="1533.96,1461.06 1532.82,1483.74 1545.22,1484.35 1546.36,1461.68 1533.96,1461.06"/>
    <poly id="343452039" type="building.yes" color="255,230,230" fill="1" layer="-1.00" shape="1548.32,1464.41 1547.35,1483.50 1561.13,1484.18 1561.67,1473.58 1556.98,1473.35 1557.40,1464.86 1548.32,1464.41"/>
    <poly id="343452400" type="building.yes" color="255,230,230" fill="1" layer="-1.00" shape="1395.50,1427.47 1394.79,1441.73 1411.62,1442.57 1412.33,1428.32 1395.50,1427.47"/>
    <poly id="343452401" type="building.yes" color="255,230,230" fill="1" layer="-1.00" shape="1418.42,1427.45 1417.67,1442.21 1437.40,1443.19 1438.15,1428.43 1418.42,1427.45"/>
    <poly id="343452402" type="building.yes" color="255,230,230" fill="1" layer="-1.00" shape="1415.86,1422.52 1436.32,1423.55 1437.02,1409.82 1416.55,1408.79 1415.86,1422.52"/>
    <poly id="343452404" type="building.yes" color="255,230,230" fill="1" layer="-1.00" shape="1427.55,1392.28 1426.77,1407.61 1438.55,1408.20 1439.33,1392.86 1427.55,1392.28"/>
    <poly id="343452405" type="building.yes" color="255,230,230" fill="1" layer="-1.00" shape="1422.52,1371.05 1438.72,1371.86 1437.99,1386.33 1421.79,1385.52 1422.52,1371.05"/>
    <poly id="343453716" type="building.yes" color="255,230,230" fill="1" layer="-1.00" shape="1088.60,1519.71 1101.12,1520.26 1101.44,1512.83 1088.93,1512.30 1088.60,1519.71"/>
    <poly id="343453717" type="building.yes" color="255,230,230" fill="1" layer="-1.00" shape="1075.19,1510.87 1087.86,1511.43 1088.16,1504.54 1075.49,1503.98 1075.19,1510.87"/>
    <poly id="343453718" type="building.yes" color="255,230,230" fill="1" layer="-1.00" shape="1076.04,1501.36 1087.01,1501.84 1087.35,1494.06 1076.38,1493.58 1076.04,1501.36"/>
    <poly id="343453719" type="building.yes" color="255,230,230" fill="1" layer="-1.00" shape="1090.50,1501.73 1101.95,1502.23 1102.31,1494.19 1090.86,1493.68 1090.50,1501.73"/>
    <poly id="343454914" type="building.yes" color="255,230,230" fill="1" layer="-1.00" shape="1397.71,1336.68 1397.10,1349.02 1416.28,1349.98 1416.91,1337.63 1397.71,1336.68"/>
    <poly id="343454915" type="building.yes" color="255,230,230" fill="1" layer="-1.00" shape="1427.32,1336.21 1426.70,1348.71 1441.07,1349.42 1441.70,1336.93 1427.32,1336.21"/>
    <poly id="343454916" type="building.yes" color="255,230,230" fill="1" layer="-1.00" shape="1504.71,1390.71 1503.55,1413.51 1520.32,1414.35 1521.48,1391.56 1504.71,1390.71"/>
    <poly id="343454917" type="building.yes" color="255,230,230" fill="1" layer="-1.00" shape="1421.02,1355.63 1420.34,1369.34 1440.27,1370.33 1440.96,1356.63 1421.02,1355.63"/>
    <poly id="343454918" type="building.yes" color="255,230,230" fill="1" layer="-1.00" shape="1394.69,1330.79 1417.22,1331.92 1417.86,1319.27 1395.33,1318.14 1394.69,1330.79"/>
    <poly id="343454920" type="building.yes" color="255,230,230" fill="1" layer="-1.00" shape="1451.98,1387.24 1450.82,1410.33 1469.47,1411.27 1470.64,1388.18 1451.98,1387.24"/>
    <poly id="343454922" type="building.yes" color="255,230,230" fill="1" layer="-1.00" shape="1482.24,1389.93 1481.09,1412.60 1500.34,1413.57 1501.49,1390.90 1482.24,1389.93"/>
    <poly id="343454923" type="building.yes" color="255,230,230" fill="1" layer="-1.00" shape="1478.94,1415.69 1477.71,1439.88 1496.20,1440.80 1497.43,1416.61 1478.94,1415.69"/>
    <poly id="343454924" type="building.yes" color="255,230,230" fill="1" layer="-1.00" shape="1524.78,1443.39 1540.63,1444.18 1541.91,1418.85 1526.07,1418.05 1524.78,1443.39"/>
    <poly id="343454925" type="building.yes" color="255,230,230" fill="1" layer="-1.00" shape="1526.25,1389.81 1525.03,1413.89 1542.24,1414.74 1543.46,1390.67 1526.25,1389.81"/>
    <poly id="343454926" type="building.yes" color="255,230,230" fill="1" layer="-1.00" shape="1551.05,1392.37 1549.76,1417.82 1570.47,1418.87 1571.77,1393.42 1551.05,1392.37"/>
    <poly id="343454927" type="building.yes" color="255,230,230" fill="1" layer="-1.00" shape="1551.17,1422.52 1550.08,1444.15 1572.72,1445.29 1573.82,1423.66 1551.17,1422.52"/>
    <poly id="343454928" type="building.construction" color="255,230,230" fill="1" layer="-1.00" shape="1505.17,1418.63 1504.16,1438.78 1518.05,1439.47 1519.06,1419.32 1505.17,1418.63"/>