<?xml version="1.0" encoding="UTF-8"?>

<!-- generated on Thu Feb  1 19:06:32 2018 by SUMO duarouter Version 0.32.0
<?xml version="1.0" encoding="UTF-8"?>

<configuration xmlns:xsi="http://www.w3.org/2001/XMLSchema-instance" xsi:noNamespaceSchemaLocation="http://sumo.dlr.de/xsd/duarouterConfiguration.xsd">

    <input>
        <net-file value="osm.net.xml"/>
        <route-files value="osm.bicycle.trips.xml"/>
    </input>

    <output>
        <output-file value="osm.bicycle.rou.xml"/>
        <alternatives-output value="osm.bicycle.rou.alt.xml"/>
    </output>

    <processing>
        <ignore-errors value="true"/>
    </processing>

    <time>
        <begin value="0"/>
        <end value="3600.0"/>
    </time>

    <report>
        <no-warnings value="true"/>
        <no-step-log value="true"/>
    </report>

</configuration>
-->

<routes xmlns:xsi="http://www.w3.org/2001/XMLSchema-instance" xsi:noNamespaceSchemaLocation="http://sumo.dlr.de/xsd/routes_file.xsd">
    <vType id="bicycle" speedFactor="normc(1.00,0.10,0.20,2.00)" vClass="bicycle"/>
    <vehicle id="bike0" type="bicycle" depart="0.00" departLane="best">
        <route edges="136790221 -136787727#1 -66080943#1 -66080943#0 66080925#1 136787651#0 136787651#1 116937014#8 -35133687#10 -35133687#9 -35133687#8 -35133687#7 -35133687#6 -35133687#5 -35133687#4 -35133687#3 -35133687#2 -35133687#1 -35133687#0 35133711#3 -24403280#0 -112994259#6 59358747#2 59358747#3 -173431796#8 -173431796#6 -173431796#5 -173431796#4 -173431796#3 59358698 107218840#5 107218840#6 107218840#8 -107218840#8"/>
    </vehicle>
    <vehicle id="bike1" type="bicycle" depart="2.88" departLane="best">
        <route edges="-38108994#3 38109112#4 -36436967#3 -36054717#3 -36054717#2 -36054717#1 -36054475#3 -36054475#2"/>
    </vehicle>
    <vehicle id="bike2" type="bicycle" depart="5.76" departLane="best">
        <route edges="36054724#1 -36054724#1 -36054724#0 36054723#1 -36436967#4 -38109112#4 38108994#3 -420294822#1 420294819 420294820#1 -38109115#0 36327857#2 36327857#3 36327857#4 -35133687#2 -35133687#1 -35133687#0 35133711#3 -24403280#0 -112994259#6 -59358747#1 346768561#0 346768561#1 346768561#2"/>
    </vehicle>
    <vehicle id="bike3" type="bicycle" depart="8.64" departLane="best">
        <route edges="59358752 105317908#1 105317908#2 59358748#0 -59358746#2 -105201134#3 -105201134#2 -105201134#1 -105514530#2 -105514530#1 -126774206#4 -126774206#3"/>
    </vehicle>
    <vehicle id="bike4" type="bicycle" depart="11.51" departLane="best">
        <route edges="-59358884#1 -36434482#6 -36434482#5 -217529762#0 -59358702#1 -59358702#0 -59358897#2 -59358897#1 -59358897#0 -59358747#3 -59358747#2 -112994259#5"/>
    </vehicle>
    <vehicle id="bike5" type="bicycle" depart="14.39" departLane="best">
        <route edges="-35133711#0 35133711#0 -38108994#8 -38108994#7 -38108994#6 -38108994#5 -38108994#4 -38108994#3 -38108994#2 -38108994#1 479433848#0 173431814#0 173431814#1 461556554#0 461556554#1 461556554#2 461556554#3 461556554#4 461556554#6 461556554#7 461556554#8 118004576#0 136752734#2 136752734#3 136752734#4 395842278 116930767#3"/>
    </vehicle>
    <vehicle id="bike6" type="bicycle" depart="17.27" departLane="best">
        <route edges="-112994255#1 112994255#1 112994255#2 112994285#2 -97848147#1 98193664 98192938#3 98192938#4 98192938#5 98192938#6 98192938#7 98192938#8 98192938#9 98192934#0 98192934#1 98192934#2 136784706#0 136784706#1 -116930767#3 -116930767#2 -116930767#1 -346543264"/>
    </vehicle>
    <vehicle id="bike7" type="bicycle" depart="20.15" departLane="best">
        <route edges="173431796#2 173431796#3 173431796#4 173431796#5 173431796#6 173431796#8 -59358747#3 -59358747#2 112994259#6 24403280#0 24403280#1 24403280#2 24403280#3 24403280#4 24403280#5 24403280#6 461556564#2 119132973#0 119132973#1 119132973#2 119132973#3 119132973#4"/>
    </vehicle>
    <vehicle id="bike8" type="bicycle" depart="23.03" departLane="best">
        <route edges="-35133711#3 35133687#0 35133687#1 35133687#2 35133687#3 35133687#4 35133687#5 35133687#6 35133687#7 35133687#8 35133687#9 35133687#10 -116937014#8 -116937014#7 -116937014#6 -116937014#5 -116937014#4 136784708#0 136784708#1 136752734#0"/>
    </vehicle>
    <vehicle id="bike9" type="bicycle" depart="25.91" departLane="best">
        <route edges="420294822#0 420294819 420294820#1 -38109115#0 36327857#2 36327857#3 36327857#4 -35133687#2 -35133687#1 -35133687#0 35133711#3 -24403280#0 -112994259#6 59358747#2 59358747#3 -173431796#8 -173431796#6 -173431796#5 -173431796#4 -173431796#3 59358698 107218840#5 107218840#6 107218840#8 105514530#0 105514530#1 105514530#2 105201134#1 -105201134#1"/>
    </vehicle>
    <vehicle id="bike10" type="bicycle" depart="28.79" departLane="best">
        <route edges="416707212 -59358858#0 173431796#4 173431796#5 173431796#6 173431796#8 59358897#0 59358897#1 59358897#2 59358897#3 -36434482#1 27227507#4 36054475#0 36054475#1 36054475#2 36054475#3 36054475#4 36054475#5 36054475#6"/>
    </vehicle>
    <vehicle id="bike11" type="bicycle" depart="31.66" departLane="best">
        <route edges="-543277821 66080943#4 66080943#5 66080943#6 66080943#7 66080943#9 -98192938#10 -98192938#9 -98192938#8 -98192938#7 -98192938#6 -98192938#5 -98192938#4 -98192938#3 -98192938#2 -98192938#1 -401390109 98581271#4 98581271#5 543237965#1 543237965#2 -165399793#2"/>
    </vehicle>
    <vehicle id="bike12" type="bicycle" depart="34.54" departLane="best">
        <route edges="93576221#10 -36054724#1 -36054724#0 36054723#1 -36436967#4 -38109112#4 38108994#3 -420294822#1 420294819 420294820#1 -38109115#0 36327857#2 36327857#3 36327857#4 -35133687#2 -35133687#1 -35133687#0 35133711#3 -24403280#0 -112994259#6 59358747#2 59358747#3 59358897#0 59358897#1 59358897#2 59358702#0 59358702#1 59358702#2 59358702#4 -557201422"/>
    </vehicle>
    <vehicle id="bike13" type="bicycle" depart="37.42" departLane="best">
        <route edges="-119132983 118004576#7 118004576#8 329620749#0 329620749#1 -136752103"/>
    </vehicle>
    <vehicle id="bike15" type="bicycle" depart="43.18" departLane="best">
        <route edges="416707215#0 416707212 59358858#1 59358858#2 59358808#3 59358808#4 59358808#5 59358847 112994259#5 112994259#6 24403280#0 -35133711#3 35133687#0 35133687#1 35133687#2 -36327857#4 -36327857#3 -36327857#2 -36327857#1 -36327857#0 36436967#2 36436967#3"/>
    </vehicle>
    <vehicle id="bike16" type="bicycle" depart="46.06" departLane="best">
        <route edges="116937015 40542210#7 116930767#5 116930767#6 116930767#7 -116930768#0 461556554#15 461556554#16 461556554#17 97848148#0 97849876#1 97849876#2"/>
    </vehicle>
    <vehicle id="bike17" type="bicycle" depart="48.93" departLane="best">
        <route edges="-59358758#1 -36434482#7 -36434482#6 -36434482#5 -36434482#4 -36434482#3 -36434482#1 27227507#4 36054475#0 -36054714#2 -36054714#1 -36054714#0 35133711#0 -38108994#8 -38108994#7 -38108994#6 -38108994#5 -38108994#4 -38108994#3 -38108994#2 -38108994#1 479433848#0 173431814#0 173431814#1 461556554#0 136787651#0 366188176#0 366188176#1 366188176#2 -136752733#4 -136752733#3 -136752733#2 -136752733#1 118926933#0 119132970#0 119132981#0 119132981#1 119132981#2"/>
    </vehicle>
    <vehicle id="bike18" type="bicycle" depart="51.81" departLane="best">
        <route edges="461556554#15 461556554#16 461556554#17 116930334#0 116930334#1 -136789080#0 -116930768#2 -136789082 -136789083#0 -116930767#6 -116930767#5 -116930767#4 -116930767#3 -395842278 -136752734#4 -136752734#3 -136752734#2 -136752734#1 -136752734#0 136784708#2 -66081734#1 136792293#1"/>
    </vehicle>
    <vehicle id="bike20" type="bicycle" depart="57.57" departLane="best">
        <route edges="35133687#2 35133687#3 35133687#4 35133687#5 35133687#6 35133687#7 35133687#8 35133687#9 35133687#10 -116937014#8 -116937014#7 -116937014#6 -116937014#5 -116937014#4 -116937014#2 -116937014#1 -116937014#0 116930767#0 116930767#1 116930767#2 116930767#3 116930767#4 116930767#5 116930767#6 116930767#7 -116930768#0"/>
    </vehicle>
    <vehicle id="bike21" type="bicycle" depart="60.45" departLane="best">
        <route edges="-36054475#7 -36054475#6 -36054475#5 -36054475#4 36054717#1 36054717#2 36054717#3 -36436967#2 36327857#0 -38108994#5 420294820#0 420294820#1 -38109115#0"/>
    </vehicle>
    <vehicle id="bike22" type="bicycle" depart="63.33" departLane="best">
        <route edges="-119132970#1 -119132970#0 -118926933#0 136752733#1 136752733#2 -136752731#1 -136752731#0 -136787651#2 116937014#8 93576221#3 93576221#4 93576221#5 93576221#6 -136787725#2 173431806 -173431814#0 -479433848#0 38108994#1 38108994#2 38108994#3 38108994#4 38108994#5 38108994#6 38108994#7 38108994#8 -35133711#0 36054714#0 36054714#1 -36054714#1"/>
    </vehicle>
    <vehicle id="bike23" type="bicycle" depart="66.21" departLane="best">
        <route edges="-126774206#7 -36434482#14 -36434482#12 -36434482#11 -36434482#10 -36434482#9 -36434482#8 -36434482#7 -36434482#6 -36434482#5 -36434482#4 -36434482#3 -36434482#1 27227507#4 36054475#0 -36054714#2 -36054714#1 -36054714#0 35133711#0 -38108994#8 -38109071#1 38109036#2 -38109036#2"/>
    </vehicle>
    <vehicle id="bike24" type="bicycle" depart="69.08" departLane="best">
        <route edges="136789779 98192938#4 98192938#5 98192938#6 98192938#7 98192938#8 98192938#9 98192934#0 98192934#1 98192934#2 136784706#0 -136752734#5 -136752734#4 -136752734#3 -136752734#2 118004576#1 118004576#2 116937014#0 116937014#1 116937014#2 116937014#4 116937014#5 116937014#6 116937014#7 116937014#8 -35133687#10 -35133687#9 -35133687#8 -35133687#7 -35133687#6 -35133687#5 -35133687#4 -35133687#3 -35133687#2 -35133687#1 -35133687#0 35133711#3 -24403280#0 -112994259#6 59358747#2 59358747#3 -173431796#8 -173431796#6 -173431796#5 -173431796#4 -173431796#3 59358698 107218840#5 107218840#6 107218840#8 105514530#0 105514530#1 105514530#2 105201134#1 105201134#2 105201134#3 59358746#2 -59358748#0 -105317908#2 -105317908#1 -59358752"/>
    </vehicle>
    <vehicle id="bike25" type="bicycle" depart="71.96" departLane="best">
        <route edges="-59358747#1 346768561#0 346768561#1 346768561#2 346768561#3 346768561#4 346768561#5 346768561#6 -346768561#6"/>
    </vehicle>
    <vehicle id="bike26" type="bicycle" depart="74.84" departLane="best">
        <route edges="-364692607 364688017#4 61494922#0 61494922#1 -61494924#1 61494924#1"/>
    </vehicle>
    <vehicle id="bike27" type="bicycle" depart="77.72" departLane="best">
        <route edges="173431796#0 173431796#1 173431796#2 173431796#3 173431796#4 173431796#5 173431796#6 173431796#8 -59358747#3 -59358747#2 112994259#6 24403280#0 -35133711#3 35133687#0 35133687#1 35133687#2 35133687#3 35133687#4 35133687#5 35133687#6 35133687#7 543283936#0 543283936#1 136787725#1 173431806 173431814#1 461556554#0 -66080925#1 66080943#0 66080943#1 136787727#1 136787727#2"/>
    </vehicle>
    <vehicle id="bike28" type="bicycle" depart="80.60" departLane="best">
        <route edges="-173431817#2 173431817#2 173431813#1 136787725#1 173431806 -173431814#0 -479433848#0 38108994#1 38108994#2 38109112#4 -36436967#3 36436967#3"/>
    </vehicle>
    <vehicle id="bike29" type="bicycle" depart="83.48" departLane="best">
        <route edges="-173431805 173431817#1 173431817#2 173431813#1 -136787725#0 -543283936#0 -35133687#7 -35133687#6 -35133687#5 -35133687#4 -35133687#3 -35133687#2 -35133687#1 -35133687#0 35133711#3 -24403280#0 -112994259#6 -112994259#5 -59358847 -59358805"/>
    </vehicle>
    <vehicle id="bike30" type="bicycle" depart="86.36" departLane="best">
        <route edges="98192938#10 -82159777#2 119133765 98192934#1 98192934#2 136784706#0 -136752734#5 -136752734#4 -136752734#3 -136752734#2 118004576#1 118004576#2 116937014#0 116937014#1 116937014#2 116937014#4 116937014#5 116937014#6 116937014#7 116937014#8 93576221#3 -173431805 173431817#1"/>
    </vehicle>
    <vehicle id="bike31" type="bicycle" depart="89.23" departLane="best">
        <route edges="119132973#4 -119132973#4 -119132973#3 -119132973#2 164165725 -136752731#0 -136787651#2 116937014#8 -35133687#10 -35133687#9 -35133687#8 -35133687#7 -35133687#6 -35133687#5 -35133687#4 35133687#4"/>
    </vehicle>
    <vehicle id="bike32" type="bicycle" depart="92.11" departLane="best">
        <route edges="464465173#2 24403280#0 -35133711#3 35133687#0 35133687#1 35133687#2 35133687#3 -420295713 38109113#1 38109113#2 38109113#3 38109113#4 385360499#1"/>
    </vehicle>
    <vehicle id="bike33" type="bicycle" depart="94.99" departLane="best">
        <route edges="-36054475#8 36054475#8 36054712#1 36054712#2 36054724#1 93576221#11 66079116#1 66080925#0 66080943#0 66080943#1 66080943#2 66080943#3 66080943#4 66080943#5 66080943#6 112994272#1 112994272#2 -112994272#2"/>
    </vehicle>
    <vehicle id="bike34" type="bicycle" depart="97.87" departLane="best">
        <route edges="-420294822#1 420294822#1 -38108994#3 -38108994#2 -38108994#1 479433848#0 173431814#0 173431814#1 461556554#0 136787651#0 366188176#0 -366188176#0"/>
    </vehicle>
    <vehicle id="bike35" type="bicycle" depart="100.75" departLane="best">
        <route edges="-35133687#1 35133687#1 35133687#2 35133687#3 35133687#4 35133687#5 35133687#6 35133687#7 543283936#0 543283936#1 136787725#1 173431806 173431814#1 461556554#0 -66080925#1 66080943#0 66080943#1 66080943#2 66080943#3"/>
    </vehicle>
    <vehicle id="bike36" type="bicycle" depart="103.63" departLane="best">
        <route edges="59358725#0 -107218840#2 -107218840#1 -59358822 173431796#8 -59358747#3 -59358747#2 112994259#6 24403280#0 24403280#1 24403280#2 24403280#3 24403280#4 24403280#5 24403280#6 461556564#2 119132973#0 119132973#1 119132973#2 119132973#3 -450548830"/>
    </vehicle>
    <vehicle id="bike37" type="bicycle" depart="106.50" departLane="best">
        <route edges="173431805 93576221#4 93576221#5 93576221#6 -136787725#2 -136787725#1 -136787725#0 -543283936#0 -35133687#7 -35133687#6 -35133687#5 -35133687#4 -35133687#3 -35133687#2 -35133687#1 -35133687#0 35133711#3 -24403280#0 -112994259#6 59358747#2 59358747#3 -173431796#8 -173431796#6 -173431796#5 -173431796#4 -173431796#3 59358698 107218840#5 107218840#6 107218840#8 105514530#0 105514530#1 105514530#2 105201134#1 -59358867"/>
    </vehicle>
    <vehicle id="bike39" type="bicycle" depart="112.26" departLane="best">
        <route edges="-364692606 59358696#1 173431796#1 173431796#2 173431796#3 173431796#4 173431796#5 173431796#6 173431796#8 -59358747#3 -59358747#2 112994259#6 24403280#0 -35133711#3 35133687#0 35133687#1 35133687#2 -36327857#4 -36327857#3 -36327857#2"/>
    </vehicle>
    <vehicle id="bike40" type="bicycle" depart="115.14" departLane="best">
        <route edges="119132981#1 -119132981#1 -119132981#0 -119132970#0 -118926933#0 136752733#1 136752733#2 -136752731#1 -136752731#0 -136787651#2 116937014#8 -35133687#10 -35133687#9 -35133687#8 -35133687#7 -35133687#6 -35133687#5 -35133687#4 -35133687#3 -35133687#2 -35133687#1 -35133687#0 35133711#3 -24403280#0 -112994259#6 59358747#2 59358747#3 -173431796#8 -173431796#6 -173431796#5 -173431796#4 -173431796#3 59358698 107218840#5 107218840#6 107218840#8 128510750#8 -364686199#1 -364686199#0"/>
    </vehicle>
    <vehicle id="bike41" type="bicycle" depart="118.02" departLane="best">
        <route edges="133881868#0 133881868#1 61494955 126774206#0 126774206#1 126774206#2 126774206#3 126774206#4 105514530#1 105201129#0 105201129#1 105201129#2 105201129#3 105201129#4 105201129#5 59358801"/>
    </vehicle>
    <vehicle id="bike42" type="bicycle" depart="120.90" departLane="best">
        <route edges="-59358826#2 -36434482#10 -36434482#9 -36434482#8 -36434482#7 -36434482#6 -36434482#5 -36434482#4 -36434482#3 -36434482#1 27227507#4 36054475#0 -36054714#2 -36054714#1 -36054714#0 35133711#0 35133711#1 -35133711#1"/>
    </vehicle>
    <vehicle id="bike43" type="bicycle" depart="123.78" departLane="best">
        <route edges="98581271#2 98581271#3 401390109 98192938#1 98192938#2 98192938#3 98192938#4 98192938#5 98192938#6 98192938#7 98192938#8 98192938#9 98192934#0 98192934#1 98192934#2 461556554#11 461556554#12 461556554#13 461556554#14 116930768#0 116930768#1"/>
    </vehicle>
    <vehicle id="bike44" type="bicycle" depart="126.65" departLane="best">
        <route edges="-119132981#3 119132981#3 -119132984#0 118926933#2 118926933#3 118926933#4 329620749#0 329620749#1 329620749#2 329620749#3 40542210#2 40542210#3 -136775502#7 -136775502#6 -136775502#4 -116930768#3 -116930768#2"/>
    </vehicle>
    <vehicle id="bike45" type="bicycle" depart="129.53" departLane="best">
        <route edges="-136752731#1 -136752731#0 -136787651#2 116937014#8 -35133687#10 -35133687#9 -35133687#8 -35133687#7 -35133687#6 -35133687#5 -35133687#4 -35133687#3 -35133687#2 -35133687#1 -35133687#0 35133711#3 -24403280#0 -112994259#6 59358747#2 59358747#3 173431796#10"/>
    </vehicle>
    <vehicle id="bike46" type="bicycle" depart="132.41" departLane="best">
        <route edges="385360499#0 -385360499#0 35133687#7 35133687#8 35133687#9 35133687#10 -116937014#8 -116937014#7 -116937014#6 -116937014#5 -116937014#4 136784708#0 136784708#1 136784708#2 461556554#6 461556554#7 461556554#8 461556554#9 82159777#0 -82159777#0"/>
    </vehicle>
    <vehicle id="bike47" type="bicycle" depart="135.29" departLane="best">
        <route edges="-117933624#1 -117933624#0 40542210#1 -329620749#3 -329620749#2 -329620749#1 -329620749#0 -118926933#4 -118926933#3 -118926933#2 119132984#0 -119132981#3 -119132981#2 -119132981#1 -119132981#0 -119132970#0 -118926933#0 136752733#1 136752733#2 -136752731#1 -136752731#0 -136787651#2 116937014#8 -35133687#10 -35133687#9 -35133687#8 -35133687#7 -35133687#6 -35133687#5 -35133687#4 -35133687#3 -35133687#2 -35133687#1 -35133687#0 35133711#3 -24403280#0 -112994259#6 -112994259#5 -59358847 -59358808#5 -59358808#4 -59358808#3"/>
    </vehicle>
    <vehicle id="bike48" type="bicycle" depart="138.17" departLane="best">
        <route edges="98193664 98192938#3 98192938#4 98192938#5 98192938#6 98192938#7 98192938#8 98192938#9 98192934#0 98192934#1 98192934#2 136784706#0 -136752734#5 -136752734#4 -136752734#3 -136752734#2 118004576#1 118004576#2 116937014#0 116937014#1 116937014#2 116937014#4 116937014#5 116937014#6 116937014#7 116937014#8 461556564#1 -24403280#6 118004574#0 118004574#1"/>
    </vehicle>
    <vehicle id="bike49" type="bicycle" depart="141.05" departLane="best">
        <route edges="97849755#2 -97849755#2 -97849876#2 -97849876#1 -97848148#0 116930334#0 116930334#1 -136789080#0 -116930768#2 -136789082 -136789083#0 -116930767#6 -116930767#5 -116930767#4 -116930767#3 -116930767#2 -116930767#1 -116930767#0 116937014#0 116937014#1 116937014#2 116937014#4 116937014#5 116937014#6 116937014#7 116937014#8 -35133687#10 -35133687#9 -35133687#8 -35133687#7 -35133687#6 -35133687#5 -35133687#4 -35133687#3 -35133687#2 -35133687#1 -35133687#0 35133711#3 -24403280#0 -112994259#6 59358747#2 59358747#3 -173431796#8 -173431796#6 -173431796#5 -173431796#4 -173431796#3 -173431796#2 -173431796#1 -59358696#1 59358696#1"/>
    </vehicle>
    <vehicle id="bike50" type="bicycle" depart="143.93" departLane="best">
        <route edges="-105317908#1 105317908#1 105317908#2 105317908#4 105317908#5 126774206#6 -36434482#14 -36434482#12 36434482#12"/>
    </vehicle>
    <vehicle id="bike51" type="bicycle" depart="146.80" departLane="best">
        <route edges="27227507#4 36054475#0 -36054714#2 -36054714#1 -36054714#0 35133711#0 -38108994#8 -38108994#7 -38108994#6 -38108994#5 -38108994#4 -38108994#3 -38108994#2 -38108994#1 479433848#0 173431814#0 173431814#1 461556554#0 136787651#0 366188176#0 366188176#1 366188176#2 -136752733#4 -136752733#3 -136752733#2 -136752733#1 118926933#0"/>
    </vehicle>
    <vehicle id="bike52" type="bicycle" depart="149.68" departLane="best">
        <route edges="-364692607 364688017#4 59358808#1 59358808#2 59358808#3 59358808#4 59358808#5 59358847 112994259#5 112994259#6 24403280#0 -35133711#3 35133687#0 35133687#1 35133687#2 35133687#3 35133687#4 35133687#5 35133687#6 35133687#7 543283936#0 543283936#1 136787725#1 173431806 173431814#1 93576221#8 93576221#9 93576221#10 93576221#11 66079116#1 66079116#2 178923612#0"/>
    </vehicle>
    <vehicle id="bike53" type="bicycle" depart="152.56" departLane="best">
        <route edges="-136752731#4 136752731#4 136752731#5 -136752732#0 -116937014#0 116930767#0 116930767#1 116930767#2 116930767#3 116930767#4 116930767#5 116930767#6 116930767#7 -116930768#0 461556554#15 461556554#16 461556554#17 97848148#0 97849876#1 97849876#2 -97849876#2"/>
    </vehicle>
    <vehicle id="bike54" type="bicycle" depart="155.44" departLane="best">
        <route edges="-97849876#0 112994285#1 112994285#2 97848147#2 97860982#4 -543237965#0 -98581271#4 -98581271#3 -98581271#2 -98581271#0 -543237964#0 -543275531#1 -241498153 82159777#6"/>
    </vehicle>
    <vehicle id="bike55" type="bicycle" depart="158.32" departLane="best">
        <route edges="59358724#1 36434482#12 128510749#5 364686199#0 364686199#1 -364686199#1"/>
    </vehicle>
    <vehicle id="bike56" type="bicycle" depart="161.20" departLane="best">
        <route edges="107218837#0 59358755#1 59358755#2 59358702#8 59358702#9 59358702#10 -107218840#6 -217529752#2"/>
    </vehicle>
    <vehicle id="bike57" type="bicycle" depart="164.08" departLane="best">
        <route edges="59358826#1 36434482#11 59358724#2"/>
    </vehicle>
    <vehicle id="bike58" type="bicycle" depart="166.95" departLane="best">
        <route edges="-39297571#0 -36054714#0 35133711#0 -38108994#8 -38108994#7 -38108994#6 -38108994#5 -38108994#4 -38108994#3 -38108994#2 -38108994#1 479433848#0 173431814#0 173431814#1"/>
    </vehicle>
    <vehicle id="bike59" type="bicycle" depart="169.83" departLane="best">
        <route edges="136775502#7 40542210#4 40542210#5 40542210#6 40542210#7 -116930767#4 -136784706#1 -136784706#0 -98192934#2 136789237#1 -136792697#1"/>
    </vehicle>
    <vehicle id="bike60" type="bicycle" depart="172.71" departLane="best">
        <route edges="364692608#0 -364692605 364692608#2 364688017#2 364688017#3 364688017#4 59358808#1 59358808#2 59358808#3 59358808#4 59358808#5 59358847 112994259#5 112994259#6 24403280#0 -35133711#3 35133687#0 35133687#1 35133687#2 35133687#3 35133687#4 35133687#5 35133687#6 35133687#7 35133687#8 35133687#9 35133687#10 -116937014#8 136787651#2 136752731#0 136752731#1 -136752733#2 -136752733#1 118926933#0 119132970#0 119132981#0 119132981#1 119132981#2 119132981#3 -119132984#0 118926933#2 118926933#3"/>
    </vehicle>
    <vehicle id="bike61" type="bicycle" depart="175.59" departLane="best">
        <route edges="38109072#0 38109036#3 36327857#3 38109113#0 38109113#1 38109113#2 38109113#3 38109113#4 -385360499#0 35133687#7 35133687#8 35133687#9 35133687#10 -116937014#8 -116937014#7 -116937014#6 -116937014#5 -116937014#4 -116937014#2 -116937014#1 -116937014#0 -118004576#2 -118004576#1 118004576#1"/>
    </vehicle>
    <vehicle id="bike62" type="bicycle" depart="178.47" departLane="best">
        <route edges="-100125332 -97950273#0 -112994272#3 -112994272#2 -112994272#1 66080943#7 66080943#9 -98192938#10 -98192938#9 -98192938#8 -98192938#7 -98192938#6 -98192938#5 -98192938#4 -98192938#3 -98192938#2 -98192938#1 -98192938#0 -98581271#0 -543237964#0"/>
    </vehicle>
    <vehicle id="bike63" type="bicycle" depart="181.35" departLane="best">
        <route edges="-107218840#1 -107218840#0 59358897#1 59358897#2 59358702#0 59358702#1 217529762#0 36434482#5 36434482#6 59358884#1"/>
    </vehicle>
    <vehicle id="bike64" type="bicycle" depart="184.22" departLane="best">
        <route edges="59358725#2 59358759#0 -36434482#5 -36434482#4 -36434482#3 -36434482#1 27227507#4 36054475#0 36054475#1 36054475#2 36054475#3 36054475#4 36054475#5 36054475#6 36054475#7 36054475#8 36054712#1 36054712#2 36054724#1 93576221#11 66079116#1 66080925#0 66080943#0 66080943#1 66080943#2 66080943#3 66080943#4 66080943#5 66080943#6 66080943#7 66080943#9 82159777#3 -136789874#1 98192468#0 98192468#1 98192468#2 543275531#0 543275531#1 543237964#0"/>
    </vehicle>
    <vehicle id="bike65" type="bicycle" depart="187.10" departLane="best">
        <route edges="-40542210#4 -136775502#7 -136775502#6 -136775502#4 -136775502#3 -136775502#2 -116928408#2 -117933620#1"/>
    </vehicle>
    <vehicle id="bike66" type="bicycle" depart="189.98" departLane="best">
        <route edges="59358725#1 59358725#2 59358759#0 -36434482#5 -36434482#4 -36434482#3 -36434482#1 27227507#4 36054475#0 36054475#1 36054475#2 36054475#3 36054475#4 36054475#5 36054475#6 36054475#7 36054475#8 36054712#1 36054712#2 36054724#1 93576221#11 66079116#1 66080925#0 66080943#0 66080943#1 66080943#2 66080943#3 66080943#4 66080943#5 66081734#0"/>
    </vehicle>
    <vehicle id="bike67" type="bicycle" depart="192.86" departLane="best">
        <route edges="-119132974 -118004576#7 -118004576#6 -118004576#5 -118004576#4 116937014#0 116937014#1 116937014#2 116937014#4 116937014#5 116937014#6 116937014#7 116937014#8 -35133687#10 -35133687#9 -35133687#8 -35133687#7 -35133687#6 -35133687#5 -35133687#4 -35133687#3 -35133687#2 -35133687#1 -35133687#0 35133711#3 -24403280#0 -112994259#6 59358747#2 59358747#3 -173431796#8 -173431796#6 -173431796#5 -173431796#4 -173431796#3 59358698 107218840#5 107218840#6 -59358702#10 -59358702#9 107218841"/>
    </vehicle>
    <vehicle id="bike68" type="bicycle" depart="195.74" departLane="best">
        <route edges="-118004576#2 118004576#2 116937014#0 116937014#1 116937014#2 116937014#4 116937014#5 116937014#6 116937014#7 116937014#8 -35133687#10 -35133687#9 -35133687#8 -35133687#7 -35133687#6 -35133687#5 -35133687#4 -35133687#3 -35133687#2 -35133687#1 38109071#0"/>
    </vehicle>
    <vehicle id="bike69" type="bicycle" depart="198.62" departLane="best">
        <route edges="366188176#0 136787650 116937014#7 116937014#8 93576221#3 93576221#4 93576221#5 93576221#6 -136787725#2 -136787725#1"/>
    </vehicle>
    <vehicle id="bike70" type="bicycle" depart="201.50" departLane="best">
        <route edges="-98192938#6 98192938#6 98192938#7 98192938#8 98192938#9 98192934#0 98192934#1 98192934#2 136784706#0 -136752734#5 -136752734#4 -136752734#3 -136752734#2 118004576#1 118004576#2 118004576#4 118004576#5 119132980"/>
    </vehicle>
    <vehicle id="bike71" type="bicycle" depart="204.37" departLane="best">
        <route edges="-364692606 -59358696#0 -59358702#10 -59358702#9 -59358702#8 -59358702#7 -59358702#6 -59358702#4 -59358725#2 59358725#2"/>
    </vehicle>
    <vehicle id="bike72" type="bicycle" depart="207.25" departLane="best">
        <route edges="-59358884#1 -36434482#6 -36434482#5 -36434482#4 -36434482#3 -36434482#1 27227507#4 36054475#0 -36054714#2 -36054714#1 -36054714#0 35133711#0 -38108994#8 -38109071#1 38109036#2 -38109072#0 -35133687#1"/>
    </vehicle>
    <vehicle id="bike73" type="bicycle" depart="210.13" departLane="best">
        <route edges="117933620#0 -117933620#0 -329620749#3 -329620749#2 -329620749#1 -329620749#0 -118926933#4 -118926933#3 -118926933#2 119132984#0 -119132981#3 -119132981#2 -119132981#1 -119132981#0 -119132970#0 -118926933#0 136752733#1 136752733#2 -136752731#1 -136752731#0 -136787651#2 116937014#8 93576221#3 93576221#4 93576221#5 93576221#6 -136787725#2 173431806 -173431814#0 -479433848#0 38108994#1 38108994#2 38109112#4 36436967#4"/>
    </vehicle>
    <vehicle id="bike74" type="bicycle" depart="213.01" departLane="best">
        <route edges="-346543266 116937014#4 116937014#5 116937014#6 116937014#7 116937014#8 -35133687#10 -35133687#9 -35133687#8 -35133687#7 -35133687#6 -35133687#5 -35133687#4 -420295713"/>
    </vehicle>
    <vehicle id="bike75" type="bicycle" depart="215.89" departLane="best">
        <route edges="98192938#9 98192938#10 82159777#3 -136789874#1 98192468#0 98192468#1 98192468#2 241498149"/>
    </vehicle>
    <vehicle id="bike76" type="bicycle" depart="218.77" departLane="best">
        <route edges="-66080943#9 66080943#9 -82159777#2 119133765 98192934#1 98192934#2 136784706#0 -136752734#5 -136752734#4 -136752734#3 -136752734#2 118004576#1 118004576#2 118004576#4 116937015"/>
    </vehicle>
    <vehicle id="bike77" type="bicycle" depart="221.65" departLane="best">
        <route edges="-136752734#2 -118004576#0 461556554#9 82159777#0 82159777#1 82159777#2 -66080943#9 -66080943#7 -66080943#6 -66080943#5 -66080943#4 -66080943#3 -66080943#2 -66080943#1 -66080943#0 -66080925#0 -66079116#1 93576221#12 -36054475#9 -36054475#8 -36054475#7 -36054475#6 -36054475#5 -36054475#4"/>
    </vehicle>
    <vehicle id="bike78" type="bicycle" depart="224.52" departLane="best">
        <route edges="-543277820 461556554#8 118004576#0 118004576#1 118004576#2 116937014#0 116937014#1 116937014#2 116937014#4 136752733#4 136752733#5"/>
    </vehicle>
    <vehicle id="bike79" type="bicycle" depart="227.40" departLane="best">
        <route edges="-36054712#1 36054712#1 36054712#2 -36054724#0 36054723#1 -36436967#4 -38109112#4 38108994#3 -420294822#1 420294819 420294820#1 -38109115#0 36327857#2 36327857#3 36327857#4 -35133687#2 -35133687#1 -35133687#0 -35133711#2"/>
    </vehicle>
    <vehicle id="bike80" type="bicycle" depart="230.28" departLane="best">
        <route edges="-118004576#6 -118004576#5 -118004576#4 116937014#0 116937014#1 116937014#2 116937014#4 116937014#5 116937014#6 116937014#7 116937014#8 -35133687#10 -35133687#9 -35133687#8 -35133687#7 -35133687#6 -35133687#5 -35133687#4 -35133687#3 -35133687#2 -35133687#1 -35133687#0 35133711#3 -24403280#0 -112994259#6 59358747#2 59358747#3 -173431796#8 -173431796#6 173431796#6"/>
    </vehicle>
    <vehicle id="bike81" type="bicycle" depart="233.16" departLane="best">