<?xml version="1.0" encoding="UTF-8"?>
<!-- generated on 2018-02-01 19:06:29.969642 by $Id$ via randomTrips.py
  options: 
-->
<routes xmlns:xsi="http://www.w3.org/2001/XMLSchema-instance" xsi:noNamespaceSchemaLocation="http://sumo.dlr.de/xsd/routes_file.xsd">
    <vType id="truck" speedFactor="normc(1.00,0.10,0.20,2.00)" vClass="truck">
    </vType>
    <trip id="truck0" depart="0.00" departLane="best" from="136789778" to="-107218840#8" type="truck"/>
    <trip id="truck1" depart="2.17" departLane="best" from="36054716" to="35133687#8" type="truck"/>
    <trip id="truck2" depart="4.34" departLane="best" from="59358753" to="-136752103" type="truck"/>
    <trip id="truck3" depart="6.52" departLane="best" from="-59358858#2" to="-112994272#1" type="truck"/>
    <trip id="truck4" depart="8.69" departLane="best" from="-112994255#2" to="-330032677#2" type="truck"/>
    <trip id="truck5" depart="10.86" departLane="best" from="-35133712#1" to="136784708#1" type="truck"/>
    <trip id="truck6" depart="13.03" departLane="best" from="450762933#0" to="-105201134#0" type="truck"/>
    <trip id="truck7" depart="15.20" departLane="best" from="-543277823" to="-165399793#2" type="truck"/>
    <trip id="truck8" depart="17.37" departLane="best" from="82159777#0" to="-59358724#0" type="truck"/>
    <trip id="truck9" depart="19.55" departLane="best" from="543237964#2" to="136789087" type="truck"/>
    <trip id="truck10" depart="21.72" departLane="best" from="461556554#22" to="173431796#4" type="truck"/>
    <trip id="truck11" depart="23.89" departLane="best" from="59358696#0" to="136752733#2" type="truck"/>
    <trip id="truck12" depart="26.06" departLane="best" from="-36054475#8" to="-40542210#0" type="truck"/>
    <trip id="truck13" depart="28.23" departLane="best" from="-119132970#1" to="-36054715" type="truck"/>
    <trip id="truck14" depart="30.41" departLane="best" from="-126774206#7" to="-38109115#0" type="truck"/>
    <trip id="truck15" depart="32.58" departLane="best" from="136789777" to="-59358764#0" type="truck"/>
    <trip id="truck16" depart="34.75" departLane="best" from="-59358746#0" to="-346768561#4" type="truck"/>
    <trip id="truck17" depart="36.92" departLane="best" from="-38108994#2" to="59358884#1" type="truck"/>
    <trip id="truck18" depart="39.09" departLane="best" from="-173431807" to="-59358808#6" type="truck"/>
    <trip id="truck19" depart="41.27" departLane="best" from="98192934#1" to="217529762#1" type="truck"/>
    <trip id="truck20" depart="43.44" departLane="best" from="119132973#1" to="36054475#2" type="truck"/>
    <trip id="truck21" depart="45.61" departLane="best" from="479433848#0" to="421821814#0" type="truck"/>
    <trip id="truck22" depart="47.78" departLane="best" from="-36054712#1" to="-112994285#1" type="truck"/>
    <trip id="truck23" depart="49.95" departLane="best" from="-346768561#7" to="59358897#3" type="truck"/>
    <trip id="truck24" depart="52.12" departLane="best" from="59358725#2" to="-543237964#2" type="truck"/>
    <trip id="truck25" depart="54.30" departLane="best" from="165399793#1" to="-59358873#0" type="truck"/>
    <trip id="truck26" depart="56.47" departLane="best" from="59358808#3" to="105201129#6" type="truck"/>
    <trip id="truck27" depart="58.64" departLane="best" from="-368277496" to="-36327857#2" type="truck"/>
    <trip id="truck28" depart="60.81" departLane="best" from="133881868#0" to="59358808#3" type="truck"/>
    <trip id="truck29" depart="62.98" departLane="best" from="98581271#0" to="117916073#3" type="truck"/>
    <trip id="truck31" depart="67.33" departLane="best" from="-117933624#2" to="-59358829" type="truck"/>
    <trip id="truck32" depart="69.50" departLane="best" from="97848147#2" to="59358706#1" type="truck"/>
    <trip id="truck33" depart="71.67" departLane="best" from="217529762#0" to="119132973#5" type="truck"/>
    <trip id="truck35" depart="76.01" departLane="best" from="-136752731#0" to="-97860982#1" type="truck"/>
    <trip id="truck36" depart="78.19" departLane="best" from="59358725#1" to="-38108994#1" type="truck"/>
    <trip id="truck37" depart="80.36" departLane="best" from="-40542210#2" to="217529762#1" type="truck"/>
    <trip id="truck38" depart="82.53" departLane="best" from="364686199#1" to="119132978" type="truck"/>
    <trip id="truck39" depart="84.70" departLane="best" from="38109072#1" to="118926933#0" type="truck"/>
    <trip id="truck40" depart="86.87" departLane="best" from="-105201129#0" to="-554111199" type="truck"/>
    <trip id="truck41" depart="89.05" departLane="best" from="59358738" to="543277823" type="truck"/>
    <trip id="truck42" depart="91.22" departLane="best" from="-421821814#0" to="-118004576#6" type="truck"/>
    <trip id="truck43" depart="93.39" departLane="best" from="59358732" to="66080925#0" type="truck"/>
    <trip id="truck44" depart="95.56" departLane="best" from="-119132978" to="112994272#5" type="truck"/>
    <trip id="truck45" depart="97.73" departLane="best" from="-118004576#1" to="39297571#1" type="truck"/>
    <trip id="truck46" depart="99.91" departLane="best" from="364688017#5" to="-136789237#1" type="truck"/>
    <trip id="truck47" depart="102.08" departLane="best" from="-97950273#1" to="126774206#0" type="truck"/>
    <trip id="truck48" depart="104.25" departLane="best" from="-371381441" to="59358748#2" type="truck"/>
    <trip id="truck50" depart="108.59" departLane="best" from="98192938#7" to="24403280#5" type="truck"/>
    <trip id="truck51" depart="110.76" departLane="best" from="-59358878" to="117933624#2" type="truck"/>
    <trip id="truck52" depart="112.94" departLane="best" from="-136752734#1" to="-36054475#7" type="truck"/>
    <trip id="truck53" depart="115.11" departLane="best" from="-36054713" to="-35133712#0" type="truck"/>
    <trip id="truck54" depart="117.28" departLane="best" from="-118004576#5" to="217529737" type="truck"/>
    <trip id="truck55" depart="119.45" departLane="best" from="-36054712#1" to="59358827" type="truck"/>
    <trip id="truck56" depart="121.62" departLane="best" from="-36054717#2" to="346768561#3" type="truck"/>
    <trip id="truck57" depart="123.80" departLane="best" from="-35133687#4" to="-136789776" type="truck"/>
    <trip id="truck59" depart="128.14" departLane="best" from="450548830" to="-26179372#0" type="truck"/>
    <trip id="truck60" depart="130.31" departLane="best" from="-126774206#1" to="-97849876#3" type="truck"/>
    <trip id="truck61" depart="132.48" departLane="best" from="-59358858#5" to="105317908#5" type="truck"/>
    <trip id="truck62" depart="134.65" departLane="best" from="36054712#0" to="35133687#2" type="truck"/>
    <trip id="truck63" depart="136.83" departLane="best" from="554111199" to="-36327857#5" type="truck"/>
    <trip id="truck64" depart="139.00" departLane="best" from="-24403280#4" to="-98192938#7" type="truck"/>
    <trip id="truck65" depart="141.17" departLane="best" from="-36434482#3" to="59358862" type="truck"/>
    <trip id="truck66" depart="143.34" departLane="best" from="98581271#4" to="543283935" type="truck"/>
    <trip id="truck67" depart="145.51" departLane="best" from="93576221#8" to="59358863#1" type="truck"/>
    <trip id="truck68" depart="147.69" departLane="best" from="543237965#2" to="-173431810#1" type="truck"/>
    <trip id="truck69" depart="149.86" departLane="best" from="-98192938#3" to="-35133687#3" type="truck"/>
    <trip id="truck70" depart="152.03" departLane="best" from="-59358808#5" to="-118004576#8" type="truck"/>
    <trip id="truck71" depart="154.20" departLane="best" from="-59358758#1" to="97950277" type="truck"/>
    <trip id="truck72" depart="156.37" departLane="best" from="119132970#1" to="364686191#1" type="truck"/>
    <trip id="truck73" depart="158.55" departLane="best" from="-165399793#3" to="-420294822#1" type="truck"/>
    <trip id="truck74" depart="160.72" departLane="best" from="105317908#0" to="557330602" type="truck"/>
    <trip id="truck75" depart="162.89" departLane="best" from="-173431796#1" to="93576221#1" type="truck"/>
    <trip id="truck76" depart="165.06" departLane="best" from="-119132970#1" to="-24403280#1" type="truck"/>
    <trip id="truck77" depart="167.23" departLane="best" from="-36054714#3" to="-136789080#0" type="truck"/>
    <trip id="truck78" depart="169.40" departLane="best" from="59358752" to="-36327857#1" type="truck"/>
    <trip id="truck79" depart="171.58" departLane="best" from="136752732#0" to="173431796#5" type="truck"/>
    <trip id="truck80" depart="173.75" departLane="best" from="-59358850#1" to="136775502#1" type="truck"/>
    <trip id="truck81" depart="175.92" departLane="best" from="112994272#2" to="59358878" type="truck"/>
    <trip id="truck82" depart="178.09" departLane="best" from="-36054717#3" to="-59358873#0" type="truck"/>
    <trip id="truck83" depart="180.26" departLane="best" from="-479433848#1" to="385360495" type="truck"/>
    <trip id="truck84" depart="182.44" departLane="best" from="-118004576#8" to="105201129#6" type="truck"/>
    <trip id="truck85" depart="184.61" departLane="best" from="-118926925#0" to="-35133687#2" type="truck"/>
    <trip id="truck86" depart="186.78" departLane="best" from="-371381441" to="59358875" type="truck"/>
    <trip id="truck87" depart="188.95" departLane="best" from="59358747#0" to="59358759#1" type="truck"/>
    <trip id="truck88" depart="191.12" departLane="best" from="136792697#1" to="-105201134#3" type="truck"/>
    <trip id="truck89" depart="193.29" departLane="best" from="457146567" to="-421821814#0" type="truck"/>
    <trip id="truck90" depart="195.47" departLane="best" from="173431804" to="59358884#1" type="truck"/>
    <trip id="truck92" depart="199.81" departLane="best" from="-38109036#3" to="136789874#0" type="truck"/>
    <trip id="truck93" depart="201.98" departLane="best" from="35133687#6" to="-346551691" type="truck"/>
    <trip id="truck94" depart="204.15" departLane="best" from="136789776" to="-38108994#2" type="truck"/>
    <trip id="truck95" depart="206.33" departLane="best" from="-98192938#8" to="59358827" type="truck"/>
    <trip id="truck96" depart="208.50" departLane="best" from="543237964#0" to="-136752731#5" type="truck"/>
    <trip id="truck97" depart="210.67" departLane="best" from="-59358858#5" to="-38109113#3" type="truck"/>
    <trip id="truck98" depart="212.84" departLane="best" from="-105201129#5" to="420294819" type="truck"/>
    <trip id="truck99" depart="215.01" departLane="best" from="36054717#0" to="126774206#4" type="truck"/>
    <trip id="truck100" depart="217.19" departLane="best" from="-118926925#1" to="59358764#1" type="truck"/>
    <trip id="truck101" depart="219.36" departLane="best" from="59358778" to="119132982" type="truck"/>
    <trip id="truck102" depart="221.53" departLane="best" from="40542210#0" to="59358706#1" type="truck"/>
    <trip id="truck103" depart="223.70" departLane="best" from="-36434482#3" to="-136775502#0" type="truck"/>
    <trip id="truck104" depart="225.87" departLane="best" from="38109112#1" to="59358764#1" type="truck"/>
    <trip id="truck105" depart="228.04" departLane="best" from="-59358826#2" to="173431796#8" type="truck"/>
    <trip id="truck106" depart="230.22" departLane="best" from="-165399793#3" to="59358873#2" type="truck"/>
    <trip id="truck107" depart="232.39" departLane="best" from="59358702#10" to="97849876#1" type="truck"/>
    <trip id="truck108" depart="234.56" departLane="best" from="450762933#1" to="59358759#1" type="truck"/>
    <trip id="truck109" depart="236.73" departLane="best" from="-107218841" to="38108994#5" type="truck"/>
    <trip id="truck110" depart="238.90" departLane="best" from="-543277820" to="59358873#2" type="truck"/>
    <trip id="truck111" depart="241.08" departLane="best" from="420294820#0" to="59358724#2" type="truck"/>
    <trip id="truck112" depart="243.25" departLane="best" from="450762933#1" to="-38108994#7" type="truck"/>
    <trip id="truck113" depart="245.42" departLane="best" from="381455584#0" to="-136784703" type="truck"/>
    <trip id="truck114" depart="247.59" departLane="best" from="-35133712#1" to="543237965#5" type="truck"/>
    <trip id="truck115" depart="249.76" departLane="best" from="40542210#0" to="-36054712#0" type="truck"/>
    <trip id="truck116" depart="251.93" departLane="best" from="-107218841" to="-329620749#0" type="truck"/>
    <trip id="truck117" depart="254.11" departLane="best" from="-543275532" to="59358724#2" type="truck"/>
    <trip id="truck118" depart="256.28" departLane="best" from="136789779" to="-59358884#0" type="truck"/>
    <trip id="truck119" depart="258.45" departLane="best" from="97860982#1" to="119132973#4" type="truck"/>
    <trip id="truck120" depart="260.62" departLane="best" from="59358888#1" to="-136787725#1" type="truck"/>
    <trip id="truck121" depart="262.79" departLane="best" from="97848147#0" to="-217529752#0" type="truck"/>
    <trip id="truck122" depart="264.97" departLane="best" from="93576221#0" to="-38108994#4" type="truck"/>
    <trip id="truck124" depart="269.31" departLane="best" from="36054712#0" to="-543237964#0" type="truck"/>
    <trip id="truck125" depart="271.48" departLane="best" from="-59358764#1" to="136752733#0" type="truck"/>
    <trip id="truck126" depart="273.65" departLane="best" from="-36436967#2" to="36434482#12" type="truck"/>
    <trip id="truck127" depart="275.82" departLane="best" from="116937014#1" to="364686191#1" type="truck"/>
    <trip id="truck128" depart="278.00" departLane="best" from="36054717#1" to="346768561#6" type="truck"/>
    <trip id="truck129" depart="280.17" departLane="best" from="-59358724#2" to="-119132981#1" type="truck"/>
    <trip id="truck130" depart="282.34" departLane="best" from="173431804" to="-59358702#1" type="truck"/>
    <trip id="truck131" depart="284.51" departLane="best" from="-479433848#1" to="557325769" type="truck"/>
    <trip id="truck132" depart="286.68" departLane="best" from="35133711#0" to="-450762933#0" type="truck"/>
    <trip id="truck133" depart="288.86" departLane="best" from="-421821814#1" to="-66079116#1" type="truck"/>
    <trip id="truck134" depart="291.03" departLane="best" from="59358888#3" to="35133687#9" type="truck"/>
    <trip id="truck135" depart="293.20" departLane="best" from="59358776" to="165400216" type="truck"/>
    <trip id="truck136" depart="295.37" departLane="best" from="-100125332" to="-40542210#0" type="truck"/>
    <trip id="truck137" depart="297.54" departLane="best" from="-59358867" to="136752734#0" type="truck"/>
    <trip id="truck138" depart="299.72" departLane="best" from="164165725" to="105317901" type="truck"/>
    <trip id="truck139" depart="301.89" departLane="best" from="-59358884#1" to="-35133687#3" type="truck"/>
    <trip id="truck140" depart="304.06" departLane="best" from="-97950273#0" to="59358826#2" type="truck"/>
    <trip id="truck141" depart="306.23" departLane="best" from="40542210#0" to="-173431817#0" type="truck"/>
    <trip id="truck142" depart="308.40" departLane="best" from="136789776" to="-59358706#0" type="truck"/>
    <trip id="truck143" depart="310.57" departLane="best" from="461556548#0" to="381455584#1" type="truck"/>
    <trip id="truck144" depart="312.75" departLane="best" from="-36327857#4" to="107218840#6" type="truck"/>
    <trip id="truck145" depart="314.92" departLane="best" from="543237965#4" to="-119132984#1" type="truck"/>
    <trip id="truck147" depart="319.26" departLane="best" from="-329620748" to="36054714#3" type="truck"/>
    <trip id="truck148" depart="321.43" departLane="best" from="105201129#3" to="-36054723#1" type="truck"/>
    <trip id="truck149" depart="323.61" departLane="best" from="165399793#2" to="-105201134#0" type="truck"/>
    <trip id="truck150" depart="325.78" departLane="best" from="36327858" to="40542210#7" type="truck"/>
    <trip id="truck152" depart="330.12" departLane="best" from="-217529738" to="82159777#6" type="truck"/>
    <trip id="truck153" depart="332.29" departLane="best" from="173431810#1" to="98192468#1" type="truck"/>
    <trip id="truck154" depart="334.46" departLane="best" from="59358753" to="165399793#3" type="truck"/>
    <trip id="truck155" depart="336.64" departLane="best" from="59358758#0" to="38109112#1" type="truck"/>
    <trip id="truck156" depart="338.81" departLane="best" from="-97950273#1" to="-36436967#5" type="truck"/>
    <trip id="truck157" depart="340.98" departLane="best" from="364688017#5" to="118004574#1" type="truck"/>
    <trip id="truck158" depart="343.15" departLane="best" from="136789237#0" to="-38109112#4" type="truck"/>
    <trip id="truck159" depart="345.32" departLane="best" from="-118926933#1" to="-401390110" type="truck"/>
    <trip id="truck160" depart="347.50" departLane="best" from="-38109036#2" to="-543273971" type="truck"/>
    <trip id="truck161" depart="349.67" departLane="best" from="346551691" to="-119132973#1" type="truck"/>
    <trip id="truck162" depart="351.84" departLane="best" from="-59358827" to="119132981#0" type="truck"/>
    <trip id="truck164" depart="356.18" departLane="best" from="-59358850#1" to="59358827" type="truck"/>
    <trip id="truck165" depart="358.36" departLane="best" from="133881868#0" to="36054714#3" type="truck"/>
    <trip id="truck166" depart="360.53" departLane="best" from="-557325769" to="385360495" type="truck"/>
    <trip id="truck167" depart="362.70" departLane="best" from="-59358850#1" to="38109113#3" type="truck"/>
    <trip id="truck168" depart="364.87" departLane="best" from="-543277821" to="35133711#2" type="truck"/>
    <trip id="truck169" depart="367.04" departLane="best" from="-59358826#2" to="-173431805" type="truck"/>
    <trip id="truck170" depart="369.21" departLane="best" from="136789083#0" to="-112994259#1" type="truck"/>
    <trip id="truck171" depart="371.39" departLane="best" from="-136787727#1" to="105201132" type="truck"/>
    <trip id="truck172" depart="373.56" departLane="best" from="-116937014#5" to="-59358808#5" type="truck"/>
    <trip id="truck173" depart="375.73" departLane="best" from="-35133687#0" to="-557201422" type="truck"/>
    <trip id="truck174" depart="377.90" departLane="best" from="36436967#5" to="-59358808#5" type="truck"/>
    <trip id="truck175" depart="380.07" departLane="best" from="36434482#10" to="543277823" type="truck"/>
    <trip id="truck177" depart="384.42" departLane="best" from="-107218840#2" to="119132978" type="truck"/>
    <trip id="truck178" depart="386.59" departLane="best" from="98581271#5" to="-59358747#2" type="truck"/>
    <trip id="truck179" depart="388.76" departLane="best" from="136792293#0" to="457146567" type="truck"/>
    <trip id="truck180" depart="390.93" departLane="best" from="66080943#3" to="-330795894#0" type="truck"/>
    <trip id="truck181" depart="393.10" departLane="best" from="-107218840#4" to="-136792697#0" type="truck"/>
    <trip id="truck182" depart="395.28" departLane="best" from="-136775502#6" to="346768561#4" type="truck"/>
    <trip id="truck183" depart="397.45" departLane="best" from="119132983" to="-35133711#0" type="truck"/>
    <trip id="truck185" depart="401.79" departLane="best" from="-450762933#2" to="35133687#9" type="truck"/>
    <trip id="truck186" depart="403.96" departLane="best" from="82159777#2" to="-59358873#0" type="truck"/>
    <trip id="truck187" depart="406.14" departLane="best" from="35133687#2" to="-126774206#4" type="truck"/>
    <trip id="truck188" depart="408.31" departLane="best" from="-126774206#7" to="420294822#0" type="truck"/>
    <trip id="truck189" depart="410.48" departLane="best" from="543237965#4" to="543277820" type="truck"/>
    <trip id="truck191" depart="414.82" departLane="best" from="346551691" to="-97860982#2" type="truck"/>
    <trip id="truck192" depart="417.00" departLane="best" from="36054715" to="93576221#2" type="truck"/>
    <trip id="truck193" depart="419.17" departLane="best" from="-38108994#8" to="543237961" type="truck"/>
    <trip id="truck194" depart="421.34" departLane="best" from="-38108994#5" to="557330602" type="truck"/>
    <trip id="truck195" depart="423.51" departLane="best" from="59358747#0" to="-36054723#1" type="truck"/>
    <trip id="truck196" depart="425.68" departLane="best" from="-59358758#1" to="-112994259#5" type="truck"/>
    <trip id="truck197" depart="427.85" departLane="best" from="-543277823" to="59358759#1" type="truck"/>
    <trip id="truck198" depart="430.03" departLane="best" from="330795894#0" to="-38109113#2" type="truck"/>
    <trip id="truck199" depart="432.20" departLane="best" from="-105201134#2" to="66080943#0" type="truck"/>
    <trip id="truck200" depart="434.37" departLane="best" from="-119132978" to="364686199#0" type="truck"/>
    <trip id="truck201" depart="436.54" departLane="best" from="-98192938#9" to="39297571#1" type="truck"/>
    <trip id="truck202" depart="438.71" departLane="best" from="26179372#0" to="241498151#1" type="truck"/>
    <trip id="truck203" depart="440.89" departLane="best" from="-119132982" to="-36054475#2" type="truck"/>
    <trip id="truck204" depart="443.06" departLane="best" from="26179372#0" to="-454707664" type="truck"/>
    <trip id="truck206" depart="447.40" departLane="best" from="36054723#1" to="-59358702#10" type="truck"/>
    <trip id="truck207" depart="449.57" departLane="best" from="346543265" to="-38109071#1" type="truck"/>
    <trip id="truck208" depart="451.74" departLane="best" from="-36434482#6" to="-136789082" type="truck"/>
    <trip id="truck209" depart="453.92" departLane="best" from="-296654962" to="-136789080#0" type="truck"/>
    <trip id="truck210" depart="456.09" departLane="best" from="-241498149" to="-35133687#7" type="truck"/>
    <trip id="truck211" depart="458.26" departLane="best" from="-98192938#10" to="364688017#6" type="truck"/>
    <trip id="truck212" depart="460.43" departLane="best" from="-385360495" to="-136752734#5" type="truck"/>
    <trip id="truck213" depart="462.60" departLane="best" from="-329620748" to="-36054712#0" type="truck"/>
    <trip id="truck214" depart="464.78" departLane="best" from="116930767#5" to="-38109112#3" type="truck"/>
    <trip id="truck215" depart="466.95" departLane="best" from="97849755#0" to="126774206#7" type="truck"/>
    <trip id="truck216" depart="469.12" departLane="best" from="27227507#6" to="-136789237#0" type="truck"/>
    <trip id="truck217" depart="471.29" departLane="best" from="59358724#1" to="136752731#5" type="truck"/>
    <trip id="truck218" depart="473.46" departLane="best" from="-241498149" to="-117916073#2" type="truck"/>
    <trip id="truck219" depart="475.64" departLane="best" from="461556554#1" to="-59358888#0" type="truck"/>
    <trip id="truck220" depart="477.81" departLane="best" from="-118926925#1" to="178923612#0" type="truck"/>
    <trip id="truck221" depart="479.98" departLane="best" from="119132981#2" to="-450762933#2" type="truck"/>
    <trip id="truck222" depart="482.15" departLane="best" from="364688017#2" to="136792293#1" type="truck"/>
    <trip id="truck223" depart="484.32" departLane="best" from="-105201129#3" to="-98193664" type="truck"/>
    <trip id="truck224" depart="486.49" departLane="best" from="346543265" to="105201129#1" type="truck"/>
    <trip id="truck225" depart="488.67" departLane="best" from="24403280#2" to="59358862" type="truck"/>
    <trip id="truck226" depart="490.84" departLane="best" from="381455584#0" to="173431810#0" type="truck"/>
    <trip id="truck227" depart="493.01" departLane="best" from="-59358858#5" to="119132982" type="truck"/>
    <trip id="truck228" depart="495.18" departLane="best" from="136790221" to="59358832" type="truck"/>
    <trip id="truck229" depart="497.35" departLane="best" from="-173431810#0" to="-454707671" type="truck"/>
    <trip id="truck231" depart="501.70" departLane="best" from="-385360499#1" to="-136789084" type="truck"/>
    <trip id="truck232" depart="503.87" departLane="best" from="59358897#3" to="116930768#2" type="truck"/>
    <trip id="truck233" depart="506.04" departLane="best" from="-543237964#0" to="-36434482#10" type="truck"/>
    <trip id="truck234" depart="508.21" departLane="best" from="-119132982" to="93576221#11" type="truck"/>
    <trip id="truck235" depart="510.38" departLane="best" from="464465173#0" to="136752732#1" type="truck"/>
    <trip id="truck236" depart="512.56" departLane="best" from="-116930334#1" to="385360499#1" type="truck"/>
    <trip id="truck237" depart="514.73" departLane="best" from="-97860274" to="27227507#4" type="truck"/>
    <trip id="truck238" depart="516.90" departLane="best" from="59358808#6" to="-241498151#0" type="truck"/>
    <trip id="truck239" depart="519.07" departLane="best" from="133881868#0" to="217529738" type="truck"/>
    <trip id="truck240" depart="521.24" departLane="best" from="-98581271#4" to="-136752731#3" type="truck"/>
    <trip id="truck241" depart="523.42" departLane="best" from="173431817#0" to="59358702#4" type="truck"/>
    <trip id="truck242" depart="525.59" departLane="best" from="-543275532" to="36054714#1" type="truck"/>
    <trip id="truck243" depart="527.76" departLane="best" from="-385360499#1" to="61494955" type="truck"/>
    <trip id="truck244" depart="529.93" departLane="best" from="454707664" to="126774206#1" type="truck"/>
    <trip id="truck245" depart="532.10" departLane="best" from="-59358826#2" to="117933620#2" type="truck"/>
    <trip id="truck246" depart="534.28" departLane="best" from="-241498153" to="-59358759#0" type="truck"/>
    <trip id="truck247" depart="536.45" departLane="best" from="36434482#7" to="173431810#1" type="truck"/>
    <trip id="truck248" depart="538.62" departLane="best" from="118004576#4" to="59358873#1" type="truck"/>
    <trip id="truck249" depart="540.79" departLane="best" from="136775502#7" to="-36054717#0" type="truck"/>
    <trip id="truck250" depart="542.96" departLane="best" from="-173431796#10" to="126774206#2" type="truck"/>
    <trip id="truck252" depart="547.31" departLane="best" from="35133687#4" to="117916073#3" type="truck"/>
    <trip id="truck253" depart="549.48" departLane="best" from="97860982#0" to="-36054723#1" type="truck"/>
    <trip id="truck254" depart="551.65" departLane="best" from="118004576#8" to="-59358847" type="truck"/>
    <trip id="truck255" depart="553.82" departLane="best" from="59358858#2" to="117916073#3" type="truck"/>
    <trip id="truck256" depart="555.99" departLane="best" from="-38109112#2" to="461556554#21" type="truck"/>
    <trip id="truck258" depart="560.34" departLane="best" from="105514530#2" to="543275532" type="truck"/>
    <trip id="truck259" depart="562.51" departLane="best" from="-385360495" to="-421821813#1" type="truck"/>
    <trip id="truck261" depart="566.85" departLane="best" from="116937014#1" to="-59358746#0" type="truck"/>
    <trip id="truck262" depart="569.02" departLane="best" from="128510749#0" to="-36054715" type="truck"/>
    <trip id="truck263" depart="571.20" departLane="best" from="38109036#1" to="-116930768#1" type="truck"/>
    <trip id="truck264" depart="573.37" departLane="best" from="450762933#2" to="-59358858#3" type="truck"/>
    <trip id="truck265" depart="575.54" departLane="best" from="173431804" to="543275532" type="truck"/>
    <trip id="truck266" depart="577.71" departLane="best" from="-112994286" to="116937014#1" type="truck"/>
    <trip id="truck267" depart="579.88" departLane="best" from="136752103" to="59358747#1" type="truck"/>
    <trip id="truck268" depart="582.06" departLane="best" from="59358725#0" to="-98187584#2" type="truck"/>
    <trip id="truck269" depart="584.23" departLane="best" from="116928408#0" to="105201129#6" type="truck"/>
    <trip id="truck270" depart="586.40" departLane="best" from="36054475#0" to="-66080925#1" type="truck"/>
    <trip id="truck271" depart="588.57" departLane="best" from="-97849876#2" to="93576221#8" type="truck"/>
    <trip id="truck272" depart="590.74" departLane="best" from="-543277822" to="36054714#0" type="truck"/>
    <trip id="truck273" depart="592.92" departLane="best" from="136792293#0" to="557330602" type="truck"/>
    <trip id="truck274" depart="595.09" departLane="best" from="543273971" to="59358702#8" type="truck"/>
    <trip id="truck275" depart="597.26" departLane="best" from="-59358758#1" to="-543237965#2" type="truck"/>
    <trip id="truck276" depart="599.43" departLane="best" from="59358724#1" to="-116928408#1" type="truck"/>
    <trip id="truck277" depart="601.60" departLane="best" from="-118004574#1" to="217529737" type="truck"/>
    <trip id="truck278" depart="603.77" departLane="best" from="59358858#1" to="98581271#0" type="truck"/>
    <trip id="truck279" depart="605.95" departLane="best" from="36054724#0" to="-97860982#0" type="truck"/>
    <trip id="truck280" depart="608.12" departLane="best" from="59358724#1" to="-98192934#2" type="truck"/>
    <trip id="truck281" depart="610.29" departLane="best" from="27227507#0" to="59358826#2" type="truck"/>
    <trip id="truck282" depart="612.46" departLane="best" from="-116930768#0" to="461556564#3" type="truck"/>
    <trip id="truck283" depart="614.63" departLane="best" from="-401390109" to="-59358799#0" type="truck"/>
    <trip id="truck286" depart="621.15" departLane="best" from="-136789082" to="105201132" type="truck"/>
    <trip id="truck287" depart="623.32" departLane="best" from="-105201132" to="479433848#1" type="truck"/>
    <trip id="truck288" depart="625.49" departLane="best" from="59358762" to="35133687#9" type="truck"/>
    <trip id="truck289" depart="627.66" departLane="best" from="-173431796#10" to="-98192468#2" type="truck"/>
    <trip id="truck290" depart="629.84" departLane="best" from="-36434482#4" to="557325768" type="truck"/>
    <trip id="truck291" depart="632.01" departLane="best" from="-98192938#0" to="-36054717#0" type="truck"/>
    <trip id="truck292" depart="634.18" departLane="best" from="128510749#0" to="136752732#0" type="truck"/>
    <trip id="truck293" depart="636.35" departLane="best" from="98192938#2" to="-420294820#1" type="truck"/>