<?xml version="1.0" encoding="UTF-8"?>

<!-- generated on Thu Feb  1 19:06:31 2018 by SUMO duarouter Version 0.32.0
<?xml version="1.0" encoding="UTF-8"?>

<configuration xmlns:xsi="http://www.w3.org/2001/XMLSchema-instance" xsi:noNamespaceSchemaLocation="http://sumo.dlr.de/xsd/duarouterConfiguration.xsd">

    <input>
        <net-file value="osm.net.xml"/>
        <route-files value="osm.motorcycle.trips.xml"/>
    </input>

    <output>
        <output-file value="osm.motorcycle.rou.xml"/>
        <alternatives-output value="osm.motorcycle.rou.alt.xml"/>
    </output>

    <processing>
        <ignore-errors value="true"/>
    </processing>

    <time>
        <begin value="0"/>
        <end value="3600.0"/>
    </time>

    <report>
        <no-warnings value="true"/>
        <no-step-log value="true"/>
    </report>

</configuration>
-->

<routes xmlns:xsi="http://www.w3.org/2001/XMLSchema-instance" xsi:noNamespaceSchemaLocation="http://sumo.dlr.de/xsd/routes_file.xsd">
    <vType id="motorcycle" speedFactor="normc(1.00,0.10,0.20,2.00)" vClass="motorcycle"/>
    <vehicle id="moto0" type="motorcycle" depart="0.00" departLane="best">
        <route edges="-38108994#5 420294820#0 420294820#1 -38109115#0 36327857#2 36327857#3 36327857#4 -35133687#2 -35133687#1 -35133687#0 35133711#3 35133712#0 -35133712#0"/>
    </vehicle>
    <vehicle id="moto1" type="motorcycle" depart="4.34" departLane="best">
        <route edges="36054723#0 36054723#1 -36436967#4 -38109112#4 38108994#3 -420294822#1 420294819 420294820#1 -38109115#0 36327857#2 36327857#3 36327857#4 -35133687#2 -35133687#1 -35133687#0 35133711#3 -24403280#0 -112994259#6 59358747#2 59358747#3 59358897#0 59358897#1 59358897#2 59358702#0 59358702#1 59358702#2 59358702#4 -346551692#1 346551692#1"/>
    </vehicle>
    <vehicle id="moto2" type="motorcycle" depart="8.69" departLane="best">
        <route edges="59358753 330032677#1 -59358826#0 59358755#1 59358755#2 59358702#8 59358702#9 59358702#10 107218840#8 105514530#0 -126774206#4 -126774206#3 -126774206#2 -126774206#1"/>
    </vehicle>
    <vehicle id="moto3" type="motorcycle" depart="13.03" departLane="best">
        <route edges="-59358884#1 -36434482#6 -36434482#5 -217529762#0 -59358702#1 -59358702#0 -59358897#2 -59358897#1 -59358897#0 -173431796#8 59358805 59358847 -112994259#4"/>
    </vehicle>
    <vehicle id="moto4" type="motorcycle" depart="17.37" departLane="best">
        <route edges="-35133687#7 35133687#7 35133687#8 35133687#9 35133687#10 -116937014#8 -116937014#7 -116937014#6 -116937014#5 -116937014#4 -116937014#2 -116937014#1 -116937014#0 116930767#0 116930767#1 116930767#2"/>
    </vehicle>
    <vehicle id="moto5" type="motorcycle" depart="21.72" departLane="best">
        <route edges="165400216 165399793#1 165399793#2 -543237965#2 -543237965#1 -97860982#4 -97848147#2 -97848147#1 98193664 98192938#3 98192938#4 98192938#5 98192938#6 98192938#7 98192938#8 98192938#9 98192934#0 98192934#1 98192934#2 136784706#0 -136752734#5 -136752734#4 -136752734#3 -136752734#2 118004576#1 118004576#2 116937014#0 136752732#0 136752732#1 136752732#2 -118926933#2 119132984#0 -119132981#3 -119132981#2 -119132981#1 -119132981#0 119132970#1 -119132973#2 119132973#2"/>
    </vehicle>
    <vehicle id="moto6" type="motorcycle" depart="26.06" departLane="best">
        <route edges="-35133711#0 35133711#0 -38108994#8 -38108994#7 -38108994#6 -38108994#5 -38108994#4 -38108994#3 -38108994#2 -38108994#1 479433848#0 173431814#0 173431814#1 461556554#0 136787651#0 366188176#0 366188176#1 366188176#2 -136752733#4 -136752733#3 136752733#3"/>
    </vehicle>
    <vehicle id="moto7" type="motorcycle" depart="30.41" departLane="best">
        <route edges="421821813#0 -107218836#2 -107218836#1 -107218836#0 107218840#4 107218840#5 107218840#6 107218840#8 105514530#0 105514530#1 105514530#2 105201134#1 -105201134#1"/>
    </vehicle>
    <vehicle id="moto8" type="motorcycle" depart="34.75" departLane="best">
        <route edges="420294820#1 -420294820#1 -420294820#0 38108994#5 -36327857#0 36436967#2 -36054717#3 -36054717#2 -36054717#1 -36054475#3 36054475#3"/>
    </vehicle>
    <vehicle id="moto9" type="motorcycle" depart="39.09" departLane="best">
        <route edges="-543277823 461556554#3 -136752733#5 -136752733#4 -136752733#3 -136752731#1 -164165725"/>
    </vehicle>
    <vehicle id="moto10" type="motorcycle" depart="43.44" departLane="best">
        <route edges="93576221#11 461556548#1 461556548#2 -173431814#1 -173431806 -136787725#1 -136787725#0 -543283936#0 -35133687#7 -35133687#6 -35133687#5 -35133687#4 -35133687#3 -35133687#2 -35133687#1 -35133687#0 35133711#3 -24403280#0 -112994259#6 59358747#2 59358747#3 -173431796#8 -173431796#6 -173431796#5 -173431796#4 -173431796#3 -173431796#2 -173431796#1 -59358696#1"/>
    </vehicle>
    <vehicle id="moto11" type="motorcycle" depart="47.78" departLane="best">
        <route edges="543237964#2 -543237964#2 165399793#0 165399793#1 165399793#2 -543237965#2 -543237965#1 -97860982#4 -97848147#2 -97848147#1 98193664 98192938#3 98192938#4 98192938#5 98192938#6 98192938#7 98192938#8 98192938#9 98192934#0 98192934#1 98192934#2 136784706#0 -136752734#5 -136752734#4 -136752734#3 -136752734#2 -136752734#1 -136752734#0 136784708#2"/>
    </vehicle>
    <vehicle id="moto12" type="motorcycle" depart="52.12" departLane="best">
        <route edges="420294822#1 -420294822#1 420294819 420294820#1 -38109115#0 36327857#2 36327857#3 36327857#4 -35133687#2 -35133687#1 -35133687#0 35133711#3 -24403280#0 -112994259#6 59358747#2 59358747#3 59358897#0 59358897#1 59358897#2 59358702#0 59358702#1 217529762#0 36434482#5 36434482#6 36434482#7 36434482#8 36434482#9"/>
    </vehicle>
    <vehicle id="moto13" type="motorcycle" depart="56.47" departLane="best">
        <route edges="116937014#8 -116937014#8 -116937014#7 -116937014#6 -116937014#5 -116937014#4 -116937014#2 -116937014#1 -116937014#0 116930767#0 116930767#1 116930767#2 116930767#3 116930767#4 116930767#5 116930767#6 116930767#7 -116930768#0 461556554#15 461556554#16 461556554#17 97848148#0 97849876#1 97849876#2 97849876#3"/>
    </vehicle>
    <vehicle id="moto14" type="motorcycle" depart="60.81" departLane="best">
        <route edges="461556554#2 461556554#3 461556554#4 461556554#6 461556554#7 461556554#8 461556554#9 82159777#0 -136789237#1 136789237#1"/>
    </vehicle>
    <vehicle id="moto15" type="motorcycle" depart="65.16" departLane="best">
        <route edges="35133687#0 35133687#1 35133687#2 35133687#3 35133687#4 35133687#5 35133687#6 35133687#7 35133687#8 35133687#9 35133687#10 -116937014#8 -116937014#7 -116937014#6 -116937014#5 -116937014#4 -116937014#2 -116937014#1 -116937014#0 116930767#0 116930767#1 116930767#2 116930767#3 116930767#4 116930767#5 116930767#6 116930767#7 -116930767#7"/>
    </vehicle>
    <vehicle id="moto16" type="motorcycle" depart="69.50" departLane="best">
        <route edges="-36054475#3 36054475#3 36054717#1 36054717#2 36054717#3 -36436967#2 36327857#0 -38108994#5 -38108994#4 -420294822#1 -420294822#0 -38109115#1"/>
    </vehicle>
    <vehicle id="moto17" type="motorcycle" depart="73.84" departLane="best">
        <route edges="-118926933#4 -118926933#3 -118926933#2 119132984#0 -119132981#3 -119132981#2 -119132981#1 -119132981#0 -119132970#0 -118926933#0 136752733#1 136752733#2 -136752731#1 -136752731#0 -136787651#2 116937014#8 93576221#3 93576221#4 93576221#5 93576221#6 93576221#7 93576221#8 93576221#9 93576221#10 -36054724#1 -36054712#2 -36054712#1"/>
    </vehicle>
    <vehicle id="moto18" type="motorcycle" depart="78.19" departLane="best">
        <route edges="-126774206#5 -105514530#0 -107218840#8 -107218840#6 -107218840#5 -59358698 173431796#3 173431796#4 173431796#5 173431796#6 173431796#8 -59358747#3 -59358747#2 112994259#6 24403280#0 -35133711#3 -35133711#2 38109036#1 38109036#2 -38109036#2"/>
    </vehicle>
    <vehicle id="moto19" type="motorcycle" depart="82.53" departLane="best">
        <route edges="-59358748#0 59358748#0 -59358746#2 -105201134#3 -105201134#2 -105201134#1 -105514530#2 -105514530#1 -105514530#0 364688017#1 364688017#2 364688017#3 364688017#4 59358808#1 -59358706#0 -59358863#1 -346768561#6 -346768561#5 -346768561#4 -346768561#3"/>
    </vehicle>
    <vehicle id="moto20" type="motorcycle" depart="86.87" departLane="best">
        <route edges="-366188176#0 -136787651#0 -66080925#1 -66080925#0 -66079116#1 66079116#1"/>
    </vehicle>
    <vehicle id="moto21" type="motorcycle" depart="91.22" departLane="best">
        <route edges="165399793#2 -543237965#2 -543237965#1 -97860982#4 -97848147#2 -97848147#1 98193664 98192938#3 98192938#4 98192938#5 98192938#6 98192938#7 98192938#8 98192938#9 98192934#0 98192934#1 98192934#2 136784706#0 -136752734#5 -136752734#4 -136752734#3 -136752734#2 118004576#1 118004576#2 116937014#0 116937014#1 116937014#2 116937014#4 116937014#5 116937014#6 116937014#7 116937014#8 93576221#3 93576221#4 93576221#5 93576221#6 -136787725#2 -136787725#1 136787725#1"/>
    </vehicle>
    <vehicle id="moto22" type="motorcycle" depart="95.56" departLane="best">
        <route edges="-173431813#1 173431813#1 -136787725#0 -543283936#0 -35133687#7 -35133687#6 -35133687#5 -35133687#4 -35133687#3 -35133687#2 -35133687#1 -35133687#0 35133711#3 -24403280#0 -112994259#6 59358747#2 59358747#3 59358897#0 59358897#1 59358897#2 59358702#0 59358702#1 217529762#0 36434482#5 36434482#6 36434482#7 36434482#8"/>
    </vehicle>
    <vehicle id="moto23" type="motorcycle" depart="99.91" departLane="best">
        <route edges="-173431796#4 59358858#0 59358858#1 59358858#2 -59358808#2"/>
    </vehicle>
    <vehicle id="moto24" type="motorcycle" depart="104.25" departLane="best">
        <route edges="98192938#10 -82159777#2 119133765 98192934#1 98192934#2 136784706#0 -136752734#5 -136752734#4 -136752734#3 -136752734#2 118004576#1 118004576#2 116937014#0 116937014#1 116937014#2 116937014#4 116937014#5 116937014#6 116937014#7 116937014#8 93576221#3 93576221#4 93576221#5 173431813#0"/>
    </vehicle>
    <vehicle id="moto25" type="motorcycle" depart="108.59" departLane="best">
        <route edges="119132973#3 -119132973#3 -119132973#2 164165725 -136752731#0 -136787651#2 116937014#8 -35133687#10 35133687#10"/>
    </vehicle>
    <vehicle id="moto26" type="motorcycle" depart="112.94" departLane="best">
        <route edges="-36054475#5 36054475#5 36054475#6 36054475#7 36054475#8 36054712#1 36054712#2 36054724#1 93576221#11 66079116#1 66080925#0 66080943#0 66080943#1 66080943#2 66080943#3 66080943#4 66080943#5 66080943#6 112994272#1 112994272#2 -112994272#2"/>
    </vehicle>
    <vehicle id="moto27" type="motorcycle" depart="117.28" departLane="best">
        <route edges="-421821813#1 -107218836#2 -107218836#1 -107218836#0 -107218840#3 -107218840#2 -107218840#1 -59358822 173431796#8 -59358747#3 -59358747#2 112994259#6 24403280#0 -35133711#3 35133687#0 35133687#1 35133687#2 35133687#3 35133687#4 35133687#5 35133687#6 35133687#7 35133687#8 35133687#9 35133687#10 -116937014#8 -116937014#7 -116937014#6 136787652 -366188176#1"/>
    </vehicle>
    <vehicle id="moto28" type="motorcycle" depart="121.62" departLane="best">
        <route edges="173431796#6 173431796#8 59358897#0 59358897#1 59358897#2 59358702#0 -59358869#1 -59358869#0"/>
    </vehicle>
    <vehicle id="moto29" type="motorcycle" depart="125.97" departLane="best">
        <route edges="-364686199#1 -364686199#0 364686191#0 -36434482#12 -36434482#11 -36434482#10 -36434482#9 -36434482#8 -36434482#7 -36434482#6 -36434482#5 -36434482#4 -36434482#3 -36434482#1 27227507#4 36054475#0 36054475#1 36054475#2 36054475#3 36054475#4 36054475#5 36054475#6 36054475#7 36054475#8 36054712#1 36054712#2 36054724#1 -36054724#1"/>
    </vehicle>
    <vehicle id="moto30" type="motorcycle" depart="130.31" departLane="best">
        <route edges="119132980 40542210#6 40542210#7 -116930767#4 -116930767#3 -116930767#2 -116930767#1 -116930767#0 116937014#0 116937014#1 116937014#2 116937014#4 116937014#5 116937014#6 116937014#7 116937014#8 93576221#3 93576221#4 93576221#5 93576221#6 -136787725#2 173431806 -173431814#0 -479433848#0 38108994#1 38108994#2 38109112#4 -36436967#3 -36436967#2"/>
    </vehicle>
    <vehicle id="moto32" type="motorcycle" depart="139.00" departLane="best">
        <route edges="-59358829 128510750#7 -107218840#8 -107218840#6 -107218840#5 -59358698 173431796#3 173431796#4 173431796#5 173431796#6 173431796#8 -59358747#3 -59358747#2 112994259#6 24403280#0 -35133711#3 35133687#0 35133687#1 35133687#2 35133687#3 35133687#4 35133687#5 35133687#6 35133687#7 35133687#8 -35133687#8"/>
    </vehicle>
    <vehicle id="moto33" type="motorcycle" depart="143.34" departLane="best">
        <route edges="98581271#2 98581271#3 401390109 98192938#1 98192938#2 98192938#3 98192938#4 98192938#5 98192938#6 98192938#7 98192938#8 98192938#9 98192934#0 98192934#1 98192934#2 136784706#0 136784706#1 116930767#4 116930767#5 116930767#6 116930767#7"/>
    </vehicle>
    <vehicle id="moto34" type="motorcycle" depart="147.69" departLane="best">
        <route edges="-119132981#1 119132981#1 119132981#2 119132981#3 -119132984#0 118926933#2 118926933#3 118926933#4 329620749#0 329620749#1 329620749#2 329620749#3 40542210#2 40542210#3 40542210#4 40542210#5 40542210#6 40542210#7 116930767#5 116930767#6 136789083#0 136789082 -116930768#1"/>
    </vehicle>
    <vehicle id="moto35" type="motorcycle" depart="152.03" departLane="best">
        <route edges="385360499#0 -385360499#0 35133687#7 35133687#8 35133687#9 35133687#10 -116937014#8 -116937014#7 -116937014#6 -116937014#5 -116937014#4 136784708#0 136784708#1 136784708#2 461556554#6 461556554#7 461556554#8 461556554#9 82159777#0 82159777#1 -82159777#1"/>
    </vehicle>
    <vehicle id="moto36" type="motorcycle" depart="156.37" departLane="best">
        <route edges="98193664 98192938#3 98192938#4 98192938#5 98192938#6 98192938#7 98192938#8 98192938#9 98192934#0 98192934#1 98192934#2 136784706#0 -136752734#5 -136752734#4 -136752734#3 -136752734#2 118004576#1 118004576#2 116937014#0 116937014#1 116937014#2 116937014#4 116937014#5 116937014#6 116937014#7 116937014#8 461556564#1 -24403280#6 118004574#0 118004574#1"/>
    </vehicle>
    <vehicle id="moto37" type="motorcycle" depart="160.72" departLane="best">
        <route edges="-105317908#1 105317908#1 105317908#2 59358748#0 -59358746#2 -105201134#3 -105201134#2 -105201134#1 -105514530#2 -105514530#1 -105514530#0 -107218840#8 -107218840#6 -107218840#5 -59358698 173431796#3 173431796#4 173431796#5 173431796#6 173431796#8 -59358747#3 -59358747#2 112994259#6 24403280#0 24403280#1 24403280#2 -26179372#1 36327858"/>
    </vehicle>
    <vehicle id="moto38" type="motorcycle" depart="165.06" departLane="best">
        <route edges="26179372#0 26179372#1 24403280#3 24403280#4 24403280#5 24403280#6 461556564#2 119132973#0 119132973#1 119132973#2 119132973#3 119132973#4 119132973#5 119132973#6 119132973#7 118926925#1"/>
    </vehicle>
    <vehicle id="moto39" type="motorcycle" depart="169.40" departLane="best">
        <route edges="-366188176#0 136787651#1 116937014#8 93576221#3 93576221#4 93576221#5 93576221#6 -136787725#2 173431806 -173431814#0 173431814#0"/>
    </vehicle>
    <vehicle id="moto40" type="motorcycle" depart="173.75" departLane="best">
        <route edges="-136752731#1 136752731#1 136752733#3 -116937014#4 -116937014#2 -116937014#1 -116937014#0 116930767#0 116930767#1 116930767#2 116930767#3 116930767#4 116930767#5 116930767#6 116930767#7 -116930768#0 461556554#15 461556554#16 461556554#17 97848148#0 97849876#1 97849876#2 -97849876#2"/>
    </vehicle>
    <vehicle id="moto41" type="motorcycle" depart="178.09" departLane="best">
        <route edges="-97849876#1 -97848148#0 116930334#0 116930334#1 -136789080#0 -116930768#2 -136789082 -136789083#0 -116930767#6 -116930767#5 -116930767#4 -116930767#3 -116930767#2 -116930767#1 -116930767#0 116937014#0 116937014#1 116937014#2 116937014#4 116937014#5 116937014#6 116937014#7 116937014#8 461556564#1 -24403280#6 118004574#0 -128510779#0 93576221#1"/>
    </vehicle>
    <vehicle id="moto42" type="motorcycle" depart="182.44" departLane="best">
        <route edges="59358725#1 59358725#2 59358759#0 -36434482#5 -36434482#4 -36434482#3 -36434482#1 27227507#4 36054475#0 36054475#1 36054475#2 36054475#3 36054717#1 36054717#2 36054717#3 36436967#3 -36436967#3"/>
    </vehicle>
    <vehicle id="moto44" type="motorcycle" depart="191.12" departLane="best">
        <route edges="59358833 59358897#1 59358897#2 59358702#0 59358702#1 59358702#2 -59358725#2 59358725#2"/>
    </vehicle>
    <vehicle id="moto45" type="motorcycle" depart="195.47" departLane="best">
        <route edges="-39297571#1 36054717#3 36436967#3 -38109112#4 -38108994#2 -38108994#1 479433848#0 173431814#0 -173431806 -136787725#1 -173431813#1 -173431817#2 173431810#1"/>
    </vehicle>
    <vehicle id="moto46" type="motorcycle" depart="199.81" departLane="best">
        <route edges="136775502#3 136775502#4 136775502#6 136775502#7 40542210#4 40542210#5 40542210#6 40542210#7 -116930767#4 -116930767#3 -395842278 -136752734#4 -136752734#3 -136752734#2 -136752734#1 -136752734#0 136784708#2 -66081734#1 -136792293#0"/>
    </vehicle>
    <vehicle id="moto47" type="motorcycle" depart="204.15" departLane="best">
        <route edges="38109072#0 38109036#3 36327857#3 38109113#0 38109113#1 38109113#2 38109113#3 38109113#4 -385360499#0 35133687#7 35133687#8 35133687#9 35133687#10 -116937014#8 -116937014#7 -116937014#6 -116937014#5 -116937014#4 136784708#0 136784708#1 136784708#2 461556554#6 461556554#7 461556554#8 118004576#0"/>
    </vehicle>
    <vehicle id="moto48" type="motorcycle" depart="208.50" departLane="best">
        <route edges="-100125332 -97950273#0 -112994272#3 -112994272#2 -112994272#1 66080943#7 66080943#9 -82159777#2 119133765 -98192934#0 -98192938#9 -98192938#8 -98192938#7 -98192938#6 -98192938#5 -98192938#4 -98192938#3 -98193664 97848147#1 97848147#2 97860982#4 -543237965#0"/>
    </vehicle>
    <vehicle id="moto49" type="motorcycle" depart="212.84" departLane="best">
        <route edges="-107218840#1 107218840#1 59358888#1"/>
    </vehicle>
    <vehicle id="moto50" type="motorcycle" depart="217.19" departLane="best">
        <route edges="-40542210#6 -40542210#5 -40542210#4 -136775502#7 -136775502#6 117916073#0 -117933620#0"/>
    </vehicle>
    <vehicle id="moto51" type="motorcycle" depart="221.53" departLane="best">
        <route edges="-118004576#1 118004576#1 118004576#2 116937014#0 116937014#1 116937014#2 116937014#4 116937014#5 116937014#6 116937014#7 116937014#8 -35133687#10 -35133687#9 -35133687#8 -35133687#7 385360499#0 -38109113#4 -38109113#3 -38109113#2 -38109113#1 -38109113#0 -36327857#3 -38109036#3 38109072#1"/>
    </vehicle>
    <vehicle id="moto52" type="motorcycle" depart="225.87" departLane="best">
        <route edges="366188176#1 -136787652"/>
    </vehicle>
    <vehicle id="moto53" type="motorcycle" depart="230.22" departLane="best">
        <route edges="-98192938#6 98192938#6 98192938#7 98192938#8 98192938#9 98192934#0 98192934#1 98192934#2 136784706#0 136784706#1 116930767#4 -40542210#7 -40542210#6 -40542210#5 -40542210#4 -40542210#3 -40542210#2 -329620749#3 119132978"/>
    </vehicle>
    <vehicle id="moto54" type="motorcycle" depart="234.56" departLane="best">
        <route edges="-364686199#1 364686199#1 364688017#0 -107218840#8 -107218840#6 -59358732 59358732"/>
    </vehicle>
    <vehicle id="moto55" type="motorcycle" depart="238.90" departLane="best">
        <route edges="-59358888#2 -59358888#1 107218840#2 107218840#3 107218840#4 -59358698 -173431796#2 -173431796#1 -173431796#0 364688017#3 364688017#4 364688017#5 364688017#6 -346768561#7"/>
    </vehicle>
    <vehicle id="moto56" type="motorcycle" depart="243.25" departLane="best">
        <route edges="-66081734#0 66081734#0 66081734#1 -136784708#2 -136784708#1 -136784708#0 116937014#4 116937014#5 116937014#6 116937014#7 116937014#8"/>
    </vehicle>
    <vehicle id="moto57" type="motorcycle" depart="247.59" departLane="best">
        <route edges="-136752733#5 -366188176#2 -366188176#1 -366188176#0 -136787651#0 -66080925#1 -66080925#0 -66079116#1 93576221#12 -36054475#9 -36054475#8 -36054475#7 -36054475#6 -36054475#5 -36054475#4 -36054475#3 -36054475#2 -36054475#1"/>
    </vehicle>
    <vehicle id="moto58" type="motorcycle" depart="251.93" departLane="best">
        <route edges="-543277822 66080943#5 66081734#0 66081734#1 -136784708#2 -136784708#1 -136784708#0 116937014#4 -136752733#3 -136752733#2 136752733#2"/>
    </vehicle>
    <vehicle id="moto59" type="motorcycle" depart="256.28" departLane="best">
        <route edges="-36054475#6 36054475#6 36054475#7 36054475#8 36054712#1 36054712#2 36054724#1 93576221#11 461556548#1 461556548#2 461556564#0 -35133687#10 -35133687#9"/>
    </vehicle>
    <vehicle id="moto60" type="motorcycle" depart="260.62" departLane="best">
        <route edges="-36054475#5 -36054475#4 36054717#1 36054717#2 36054717#3 -36436967#2 36327857#0 36327857#1 36327857#2 36327857#3 36327857#4 -35133687#2 -35133687#1 -35133687#0 35133711#3 -24403280#0 -112994259#6 -59358747#1 346768561#0 346768561#1 346768561#2 59358827"/>
    </vehicle>
    <vehicle id="moto61" type="motorcycle" depart="264.97" departLane="best">
        <route edges="543470383#1 27227507#4 36054475#0 -36054714#2 -36054714#1 -36054714#0 35133711#0 -38108994#8 -38108994#7 -38108994#6 -38108994#5 -38108994#4 -38108994#3 -38108994#2 -38108994#1 479433848#0 173431814#0 173431814#1 461556554#0 461556554#1 461556554#2 461556554#3 461556554#4 461556554#6 461556554#7 461556554#8 118004576#0 118004576#1 118004576#2 118004576#4 118004576#5 118004576#6 118004576#7 118004576#8 -118926933#4"/>
    </vehicle>
    <vehicle id="moto62" type="motorcycle" depart="269.31" departLane="best">
        <route edges="-36054714#3 -36054714#2 -36054714#1 -36054714#0 35133711#0 35133711#1 35133711#2 35133711#3 -24403280#0 -112994259#6 59358747#2 59358747#3 59358897#0 59358897#1 59358897#2 59358702#0 59358702#1 59358702#2 59358702#4 59358702#6 59358702#7 -59358755#2 -59358755#1 -59358755#0 330032677#2"/>
    </vehicle>
    <vehicle id="moto63" type="motorcycle" depart="273.65" departLane="best">
        <route edges="-35133687#10 35133687#10 93576221#3 93576221#4 93576221#5 93576221#6 93576221#7 461556554#0 -66080925#1 66080943#0 66080943#1 -136787727#0"/>
    </vehicle>
    <vehicle id="moto64" type="motorcycle" depart="278.00" departLane="best">
        <route edges="61494924#1 105317901 128510750#4 128510750#5 128510750#6"/>
    </vehicle>
    <vehicle id="moto65" type="motorcycle" depart="282.34" departLane="best">
        <route edges="-98192938#3 98192938#3 98192938#4 98192938#5 98192938#6 98192938#7 98192938#8 98192938#9 98192934#0 98192934#1 98192934#2 136784706#0 136784706#1 116930767#4 -40542210#7 -40542210#6 -40542210#5 -40542210#4 -40542210#3 40542210#3"/>
    </vehicle>
    <vehicle id="moto66" type="motorcycle" depart="286.68" departLane="best">
        <route edges="420294822#1 -420294822#1 420294819 420294820#1 -38109115#0 36327857#2 36327857#3 36327857#4 36327857#5 24403280#2 -26179372#1 -26179372#0"/>
    </vehicle>
    <vehicle id="moto67" type="motorcycle" depart="291.03" departLane="best">
        <route edges="-119133765 119133765 -98192934#0 -98192938#9 -98192938#8 -98192938#7 -98192938#6 -98192938#5 -98192938#4 -98192938#3 -98193664 97848147#1 -112994285#2 -112994255#2 -112994255#1 -112994255#0 -97849755#0"/>
    </vehicle>
    <vehicle id="moto68" type="motorcycle" depart="295.37" departLane="best">
        <route edges="-59358888#3 59358888#3 59358702#2 59358702#4 59358702#6 59358702#7 -59358755#2 -59358755#1 -59358755#0 59358826#1 36434482#11 36434482#12 36434482#14 -126774206#6 -105317908#5 105201129#4 105201129#5 105201129#6"/>
    </vehicle>
    <vehicle id="moto69" type="motorcycle" depart="299.72" departLane="best">
        <route edges="36054715 36054475#2 36054475#3 36054717#1 36054717#2 36054717#3 36436967#3 -38109112#4 -38108994#2 -38108994#1 479433848#0 173431814#0 173431814#1 461556554#0 136787651#0 366188176#0 366188176#1 366188176#2 -136752733#4 -136752733#3 -136752733#2 -136752733#1 118926933#0 119132970#0 119132981#0 119132981#1 346543265"/>
    </vehicle>
    <vehicle id="moto70" type="motorcycle" depart="304.06" departLane="best">
        <route edges="98192468#0 -98192468#0 136789874#1 -82159777#3 -82159777#2 119133765 98192934#1 98192934#2 136784706#0 136784706#1 116930767#4 -40542210#7 -40542210#6 -40542210#5 -40542210#4 -40542210#3 -40542210#2 -329620749#3 -329620749#2 -136752103"/>
    </vehicle>
    <vehicle id="moto72" type="motorcycle" depart="312.75" departLane="best">
        <route edges="554111199 -112994272#1 -66080943#6 -66080943#5 -66080943#4 -66080943#3 -66080943#2 -66080943#1 -66080943#0 -66080925#0 -66079116#1 461556548#1 -36436967#5 -36436967#4 -38109112#4 38108994#3 -420294822#1 420294819 420294820#1 -38109115#0 -36327857#1"/>
    </vehicle>
    <vehicle id="moto73" type="motorcycle" depart="317.09" departLane="best">
        <route edges="-24403280#4 24403280#4 38109112#0 35133687#6 35133687#7 35133687#8 35133687#9 35133687#10 -116937014#8 -116937014#7 -116937014#6 -116937014#5 -116937014#4 -116937014#2 -116937014#1 -116937014#0 -118004576#2 -118004576#1 136752734#2 136752734#3 136752734#4 136752734#5 -136784706#0 -98192934#2 -98192934#1"/>
    </vehicle>
    <vehicle id="moto74" type="motorcycle" depart="321.43" departLane="best">
        <route edges="-59358884#1 -36434482#6 -36434482#5 -36434482#4 -36434482#3 -36434482#1 27227507#4 36054475#0 -36054714#2 -36054714#1 -36054714#0 35133711#0 -38108994#8 -38108994#7 -38108994#6 36327857#1 36327857#2 -38109036#3"/>
    </vehicle>
    <vehicle id="moto75" type="motorcycle" depart="325.78" departLane="best">
        <route edges="-36327857#5 -35133687#2 -35133687#1 -35133687#0 35133711#3 -24403280#0 -112994259#6 59358747#2 59358747#3 59358897#0 59358897#1 59358897#2 59358702#0 59358702#1 217529762#0 36434482#5 36434482#6 36434482#7 36434482#8 36434482#9 59358873#2"/>
    </vehicle>
    <vehicle id="moto76" type="motorcycle" depart="330.12" departLane="best">
        <route edges="118926933#1 118926933#2 -136752732#2 -136752732#1 -136752731#5 -136752731#4 346543268 -116937014#1"/>
    </vehicle>
    <vehicle id="moto77" type="motorcycle" depart="334.46" departLane="best">
        <route edges="98581271#4 -98581271#4 -98581271#3 -98581271#2 -98581271#0 -543237964#0 -543275531#1 543275531#1"/>
    </vehicle>
    <vehicle id="moto78" type="motorcycle" depart="338.81" departLane="best">
        <route edges="543237965#1 -543237965#1 -97860982#4 -97848147#2 -97848147#1 98193664 98192938#3 98192938#4 98192938#5 98192938#6 98192938#7 98192938#8 98192938#9 98192934#0 98192934#1 98192934#2 136784706#0 -136752734#5 -136752734#4 -136752734#3 -136752734#2 118004576#1 118004576#2 116937014#0 116937014#1 116937014#2 116937014#4 116937014#5 116937014#6 116937014#7 116937014#8 -35133687#10 -35133687#9 -35133687#8 543283936#0 -173431804"/>
    </vehicle>
    <vehicle id="moto79" type="motorcycle" depart="343.15" departLane="best">
        <route edges="105201129#5 -105201129#5 -105201129#4 105317908#5 126774206#6 -36434482#14 -36434482#12 -36434482#11 -36434482#10 -36434482#9 -36434482#8 -36434482#7 -36434482#6 -36434482#5 -36434482#4 -36434482#3 -36434482#1 27227507#4 36054475#0 -36054714#2 -36054714#1 -36054714#0 35133711#0 -38108994#8 -38109071#1 38109036#2 -38109072#0 -35133687#1"/>
    </vehicle>
    <vehicle id="moto80" type="motorcycle" depart="347.50" departLane="best">
        <route edges="-97849876#3 -97849755#1 112994255#0 112994255#1 112994255#2 112994285#2 -97848147#1 98193664 98192938#3 98192938#4 98192938#5 98192938#6 98192938#7 98192938#8 98192938#9 98192934#0 -119133765 82159777#2 -82159777#2"/>
    </vehicle>
    <vehicle id="moto81" type="motorcycle" depart="351.84" departLane="best">
        <route edges="93576221#12 -36054475#9 36054712#1 36054712#2 36054724#1 93576221#11 66079116#1 66080925#0 66080943#0 66080943#1 66080943#2 66080943#3 66080943#4 66080943#5 66080943#6 66080943#7 66080943#9 -82159777#2 119133765 -98192934#0 -98192938#9 98192938#9"/>
    </vehicle>
    <vehicle id="moto82" type="motorcycle" depart="356.18" departLane="best">
        <route edges="119132973#1 164165725 -136752731#0 -136787651#2 116937014#8 -35133687#10 -35133687#9 -35133687#8 -35133687#7 385360499#0 -38109113#4 -38109113#3 -38109113#2 -38109113#1 -38109113#0 -36327857#3 -36327857#2 36327857#2"/>
    </vehicle>
    <vehicle id="moto83" type="motorcycle" depart="360.53" departLane="best">
        <route edges="-165399793#0 165399793#0 -165400216 98192938#0 98192938#1 -401390110"/>
    </vehicle>
    <vehicle id="moto84" type="motorcycle" depart="364.87" departLane="best">
        <route edges="-117916073#0 136775502#6 136775502#7 -40542210#3 -40542210#2 -329620749#3 -329620749#2 -329620749#1 -329620749#0 -118926933#4 -118926933#3 -136752732#2 -136752732#1 -136752731#5 136752731#5"/>
    </vehicle>
    <vehicle id="moto85" type="motorcycle" depart="369.21" departLane="best">
        <route edges="107218840#1 -107218840#1 -59358822 173431796#8 -59358747#3 -59358747#2 112994259#6 543470389"/>
    </vehicle>
    <vehicle id="moto86" type="motorcycle" depart="373.56" departLane="best">
        <route edges="-165399793#3 -543237965#2 -543237965#1 -97860982#4 -97848147#2 -97848147#1 98193664 98192938#3 98192938#4 98192938#5 98192938#6 98192938#7 98192938#8 98192938#9 98192934#0 98192934#1 98192934#2 136784706#0 -136752734#5 -136752734#4 -136752734#3 -136752734#2 118004576#1 118004576#2 116937014#0 116937014#1 116937014#2 116937014#4 116937014#5 116937014#6 116937014#7 116937014#8 93576221#3 93576221#4 93576221#5"/>
    </vehicle>
    <vehicle id="moto87" type="motorcycle" depart="377.90" departLane="best">