<?xml version="1.0" encoding="UTF-8"?>

<!-- generated on Thu Feb  1 19:06:28 2018 by SUMO duarouter Version 0.32.0
<?xml version="1.0" encoding="UTF-8"?>

<configuration xmlns:xsi="http://www.w3.org/2001/XMLSchema-instance" xsi:noNamespaceSchemaLocation="http://sumo.dlr.de/xsd/duarouterConfiguration.xsd">

    <input>
        <net-file value="osm.net.xml"/>
        <route-files value="osm.passenger.trips.xml"/>
    </input>

    <output>
        <output-file value="osm.passenger.rou.xml"/>
        <alternatives-output value="osm.passenger.rou.alt.xml"/>
    </output>

    <processing>
        <ignore-errors value="true"/>
    </processing>

    <time>
        <begin value="0"/>
        <end value="3600.0"/>
    </time>

    <report>
        <no-warnings value="true"/>
        <no-step-log value="true"/>
    </report>

</configuration>
-->

<routes xmlns:xsi="http://www.w3.org/2001/XMLSchema-instance" xsi:noNamespaceSchemaLocation="http://sumo.dlr.de/xsd/routes_file.xsd">
    <vType id="passenger" speedFactor="normc(1.00,0.10,0.20,2.00)" vClass="passenger"/>
    <vehicle id="veh0" type="passenger" depart="0.00" departLane="best">
        <route edges="136789778 98192938#8 98192938#9 98192934#0 98192934#1 98192934#2 136784706#0 -136752734#5 -136752734#4 -136752734#3 -136752734#2 118004576#1 118004576#2 116937014#0 116937014#1 116937014#2 116937014#4 116937014#5 116937014#6 116937014#7 116937014#8 -35133687#10 -35133687#9 -35133687#8 -35133687#7 -35133687#6 -35133687#5 -35133687#4 -35133687#3 -35133687#2 -35133687#1 -35133687#0 35133711#3 -24403280#0 -112994259#6 59358747#2 59358747#3 -173431796#8 -173431796#6 -173431796#5 -173431796#4 -173431796#3 59358698 107218840#5 107218840#6 107218840#8 -107218840#8"/>
    </vehicle>
    <vehicle id="veh1" type="passenger" depart="1.45" departLane="best">
        <route edges="-38109112#0 38109112#0 38109112#1 38109112#2 38109112#3 38109112#4 36436967#4 -36054723#1 36054724#0 -36054712#2 -36054712#1 -36054475#8 -36054475#7 -36054475#6 -36054475#5"/>
    </vehicle>
    <vehicle id="veh2" type="passenger" depart="2.90" departLane="best">
        <route edges="36054716 36054475#3 36054717#1 36054717#2 36054717#3 36436967#3 -38109112#4 -38109112#3 -38109112#2 38109113#4 -385360499#0 35133687#7 35133687#8"/>
    </vehicle>
    <vehicle id="veh3" type="passenger" depart="4.34" departLane="best">
        <route edges="59358753 330032677#1 330032677#2 59358873#1 -36434482#9 -36434482#8 -36434482#7 -36434482#6 -36434482#5 -36434482#4 -36434482#3 -36434482#1 27227507#4 36054475#0 -36054714#2 -36054714#1 -36054714#0 35133711#0 -38108994#8 -38108994#7 -38108994#6 -38108994#5 -38108994#4 -38108994#3 -38108994#2 -38108994#1 479433848#0 173431814#0 173431814#1 461556554#0 461556554#1 461556554#2 461556554#3 461556554#4 461556554#6 461556554#7 461556554#8 118004576#0 118004576#1 118004576#2 118004576#4 118004576#5 118004576#6 118004576#7 118004576#8 329620749#0 329620749#1 -136752103"/>
    </vehicle>
    <vehicle id="veh4" type="passenger" depart="5.79" departLane="best">
        <route edges="-59358858#2 59358858#2 59358808#3 59358808#4 59358808#5 59358847 112994259#5 112994259#6 24403280#0 -35133711#3 35133687#0 35133687#1 35133687#2 35133687#3 35133687#4 35133687#5 35133687#6 35133687#7 35133687#8 35133687#9 35133687#10 -116937014#8 -116937014#7 -116937014#6 -116937014#5 -116937014#4 136784708#0 136784708#1 136784708#2 -66081734#1 -66081734#0 66080943#6 112994272#1 -112994272#1"/>
    </vehicle>
    <vehicle id="veh5" type="passenger" depart="7.24" departLane="best">
        <route edges="-35133711#2 38109036#1 38109036#2 38109036#3 36327857#3 38109113#0 38109113#1 38109113#2 38109113#3 38109113#4 -385360499#0 35133687#7 35133687#8 35133687#9 35133687#10 -116937014#8 116937014#8"/>
    </vehicle>
    <vehicle id="veh6" type="passenger" depart="8.69" departLane="best">
        <route edges="-112994255#2 112994255#2 112994285#2 -97848147#1 98193664 98192938#3 98192938#4 98192938#5 98192938#6 98192938#7 98192938#8 98192938#9 98192934#0 98192934#1 98192934#2 136784706#0 -136752734#5 -136752734#4 -136752734#3 -136752734#2 118004576#1 118004576#2 116937014#0 116937014#1 116937014#2 116937014#4 116937014#5 116937014#6 116937014#7 116937014#8 -35133687#10 -35133687#9 -35133687#8 -35133687#7 -35133687#6 -35133687#5 -35133687#4 -35133687#3 -35133687#2 -35133687#1 -35133687#0 35133711#3 -24403280#0 -112994259#6 59358747#2 59358747#3 59358897#0 59358897#1 59358897#2 59358702#0 59358702#1 59358702#2 59358702#4 59358702#6 59358702#7 -59358755#2 -59358755#1 -59358755#0 330032677#2 -330032677#2"/>
    </vehicle>
    <vehicle id="veh7" type="passenger" depart="10.14" departLane="best">
        <route edges="136792293#0 66081734#1 461556554#6 461556554#7 461556554#8 118004576#0 118004576#1 118004576#2 118004576#4 118004576#5 118004576#6 118004576#7 118004576#8 329620749#0 119132982"/>
    </vehicle>
    <vehicle id="veh8" type="passenger" depart="11.58" departLane="best">
        <route edges="-35133712#1 -35133712#0 -35133711#3 35133687#0 35133687#1 35133687#2 35133687#3 35133687#4 35133687#5 35133687#6 35133687#7 35133687#8 35133687#9 35133687#10 -116937014#8 -116937014#7 -116937014#6 -116937014#5 -116937014#4 136784708#0 136784708#1"/>
    </vehicle>
    <vehicle id="veh9" type="passenger" depart="13.03" departLane="best">
        <route edges="450762933#0 -97849876#3 -97849876#2 -97849876#1 -97848148#0 116930334#0 116930334#1 -136789080#0 -116930768#2 -136789082 -136789083#0 -116930767#6 -116930767#5 -116930767#4 -116930767#3 -116930767#2 -116930767#1 -116930767#0 116937014#0 116937014#1 116937014#2 116937014#4 116937014#5 116937014#6 116937014#7 116937014#8 -35133687#10 -35133687#9 -35133687#8 -35133687#7 -35133687#6 -35133687#5 -35133687#4 -35133687#3 -35133687#2 -35133687#1 -35133687#0 35133711#3 -24403280#0 -112994259#6 59358747#2 59358747#3 -173431796#8 -173431796#6 -173431796#5 -173431796#4 -173431796#3 59358698 107218840#5 107218840#6 107218840#8 105514530#0 105514530#1 105514530#2 -105201134#0"/>
    </vehicle>
    <vehicle id="veh10" type="passenger" depart="14.48" departLane="best">
        <route edges="421821813#0 -421821813#0 346551692#1 -59358702#4 59358759#0 -36434482#5 -36434482#4 -36434482#3 -36434482#1 27227507#4 36054475#0 36054475#1 36054475#2 36054475#3 36054717#1 36054717#2"/>
    </vehicle>
    <vehicle id="veh11" type="passenger" depart="15.93" departLane="best">
        <route edges="-543277823 461556554#3 461556554#4 461556554#6 461556554#7 461556554#8 461556554#9 82159777#0 -136789237#1 -98192934#1 -98192934#0 -98192938#9 -98192938#8 -98192938#7 -98192938#6 -98192938#5 -98192938#4 -98192938#3 -98193664 97848147#1 97848147#2 97860982#4 543237965#1 543237965#2 -165399793#2"/>
    </vehicle>
    <vehicle id="veh12" type="passenger" depart="17.37" departLane="best">
        <route edges="82159777#0 -136789237#1 98192934#2 136784706#0 -136752734#5 -136752734#4 -136752734#3 -136752734#2 118004576#1 118004576#2 116937014#0 116937014#1 116937014#2 116937014#4 116937014#5 116937014#6 116937014#7 116937014#8 -35133687#10 -35133687#9 -35133687#8 -35133687#7 -35133687#6 -35133687#5 -35133687#4 -35133687#3 -35133687#2 -35133687#1 -35133687#0 35133711#3 -24403280#0 -112994259#6 59358747#2 59358747#3 59358897#0 59358897#1 59358897#2 59358702#0 59358702#1 59358702#2 59358702#4 59358702#6 59358702#7 -59358755#2 -59358755#1 -59358755#0 -330032677#1 -59358724#0"/>
    </vehicle>
    <vehicle id="veh13" type="passenger" depart="18.82" departLane="best">
        <route edges="-119132982 -329620749#0 -118926933#4 -118926933#3 -118926933#2 119132984#0 -119132981#3 -119132981#2 -119132981#1 -119132981#0 -119132970#0 -118926933#0 136752733#1 136752733#2 136752733#3 136752733#4 -136752733#4"/>
    </vehicle>
    <vehicle id="veh14" type="passenger" depart="20.27" departLane="best">
        <route edges="543237964#2 -543237964#2 165399793#0 165399793#1 165399793#2 -543237965#2 -543237965#1 -97860982#4 -97848147#2 -97848147#1 -97848147#0 461556554#14 116930768#0 -116930767#7 -116930767#6 136789087"/>
    </vehicle>
    <vehicle id="veh15" type="passenger" depart="21.72" departLane="best">
        <route edges="-59358758#1 36434482#8 36434482#9 36434482#10 36434482#11 36434482#12 36434482#14 -126774206#6 -126774206#5 -126774206#4 126774206#4"/>
    </vehicle>
    <vehicle id="veh16" type="passenger" depart="23.17" departLane="best">
        <route edges="461556554#22 479245735#0 98187584#0 -97860274 -450762933#1 -97849876#3 -97849876#2 -97849876#1 -97848148#0 116930334#0 116930334#1 -136789080#0 -116930768#2 -136789082 -136789083#0 -116930767#6 -116930767#5 -116930767#4 -116930767#3 -116930767#2 -116930767#1 -116930767#0 116937014#0 116937014#1 116937014#2 116937014#4 116937014#5 116937014#6 116937014#7 116937014#8 -35133687#10 -35133687#9 -35133687#8 -35133687#7 -35133687#6 -35133687#5 -35133687#4 -35133687#3 -35133687#2 -35133687#1 -35133687#0 35133711#3 -24403280#0 -112994259#6 59358747#2 59358747#3 -173431796#8 -173431796#6 -173431796#5 -173431796#4 173431796#4"/>
    </vehicle>
    <vehicle id="veh17" type="passenger" depart="24.61" departLane="best">
        <route edges="59358696#0 59358696#1 173431796#1 173431796#2 173431796#3 173431796#4 173431796#5 173431796#6 173431796#8 -59358747#3 -59358747#2 112994259#6 24403280#0 -35133711#3 35133687#0 35133687#1 35133687#2 35133687#3 35133687#4 35133687#5 35133687#6 35133687#7 35133687#8 35133687#9 35133687#10 -116937014#8 136787651#2 136752731#0 136752731#1 -136752733#2 136752733#2"/>
    </vehicle>
    <vehicle id="veh18" type="passenger" depart="26.06" departLane="best">
        <route edges="-36054475#8 36054475#8 36054712#1 36054712#2 36054724#1 93576221#11 461556548#1 461556548#2 461556554#0 461556554#1 461556554#2 461556554#3 461556554#4 461556554#6 461556554#7 461556554#8 118004576#0 118004576#1 118004576#2 118004576#4 118004576#5 118004576#6 118004576#7 118004576#8 329620749#0 329620749#1 329620749#2 329620749#3 -40542210#1 -40542210#0"/>
    </vehicle>
    <vehicle id="veh19" type="passenger" depart="27.51" departLane="best">
        <route edges="-119132970#1 -119132970#0 -118926933#0 136752733#1 136752733#2 -136752731#1 -136752731#0 -136787651#2 116937014#8 93576221#3 93576221#4 93576221#5 93576221#6 -136787725#2 173431806 -173431814#0 -479433848#0 38108994#1 38108994#2 38109112#4 -36436967#3 -36054717#3 -36054717#2 -36054717#1 -36054475#3 -36054475#2 -36054715"/>
    </vehicle>
    <vehicle id="veh20" type="passenger" depart="28.96" departLane="best">
        <route edges="-126774206#7 -36434482#14 -36434482#12 -36434482#11 -36434482#10 -36434482#9 -36434482#8 -36434482#7 -36434482#6 -36434482#5 -36434482#4 -36434482#3 -36434482#1 27227507#4 36054475#0 -36054714#2 -36054714#1 -36054714#0 35133711#0 -38108994#8 -38108994#7 -38108994#6 -38108994#5 420294820#0 420294820#1 -38109115#0"/>
    </vehicle>
    <vehicle id="veh21" type="passenger" depart="30.41" departLane="best">
        <route edges="136789777 98192938#5 98192938#6 98192938#7 98192938#8 98192938#9 98192934#0 98192934#1 98192934#2 136784706#0 -136752734#5 -136752734#4 -136752734#3 -136752734#2 118004576#1 118004576#2 116937014#0 116937014#1 116937014#2 116937014#4 116937014#5 116937014#6 116937014#7 116937014#8 -35133687#10 -35133687#9 -35133687#8 -35133687#7 -35133687#6 -35133687#5 -35133687#4 -35133687#3 -35133687#2 -35133687#1 -35133687#0 35133711#3 -24403280#0 -112994259#6 -112994259#5 -59358847 -59358808#5 -59358808#4 -59358808#3 -59358808#2 -59358808#1 61494922#0 61494922#1 -61494924#1 -61494924#0 59358764#0 -59358764#0"/>
    </vehicle>
    <vehicle id="veh22" type="passenger" depart="31.85" departLane="best">
        <route edges="-59358746#0 -105201129#1 -105201129#0 -105514530#1 -105514530#0 364688017#1 364688017#2 364688017#3 364688017#4 59358808#1 -59358706#0 -59358863#1 -346768561#6 -346768561#5 -346768561#4"/>
    </vehicle>
    <vehicle id="veh23" type="passenger" depart="33.30" departLane="best">
        <route edges="-38108994#2 38108994#2 38108994#3 -420294822#1 420294819 420294820#1 -38109115#0 36327857#2 36327857#3 36327857#4 -35133687#2 -35133687#1 -35133687#0 35133711#3 -24403280#0 -112994259#6 59358747#2 59358747#3 59358897#0 59358897#1 59358897#2 59358702#0 59358702#1 217529762#0 36434482#5 36434482#6 59358884#1"/>
    </vehicle>
    <vehicle id="veh24" type="passenger" depart="34.75" departLane="best">
        <route edges="-173431807 -35133687#8 -35133687#7 -35133687#6 -35133687#5 -35133687#4 -35133687#3 -35133687#2 -35133687#1 -35133687#0 35133711#3 -24403280#0 -112994259#6 59358747#2 -59358808#6"/>
    </vehicle>
    <vehicle id="veh25" type="passenger" depart="36.20" departLane="best">
        <route edges="98192934#1 98192934#2 136784706#0 -136752734#5 -136752734#4 -136752734#3 -136752734#2 118004576#1 118004576#2 116937014#0 116937014#1 116937014#2 116937014#4 116937014#5 116937014#6 116937014#7 116937014#8 -35133687#10 -35133687#9 -35133687#8 -35133687#7 -35133687#6 -35133687#5 -35133687#4 -35133687#3 -35133687#2 -35133687#1 -35133687#0 35133711#3 -24403280#0 -112994259#6 59358747#2 59358747#3 59358897#0 59358897#1 59358897#2 59358702#0 59358702#1 217529762#0 217529762#1"/>
    </vehicle>
    <vehicle id="veh26" type="passenger" depart="37.65" departLane="best">
        <route edges="119132973#1 164165725 -136752731#0 -136787651#2 116937014#8 93576221#3 93576221#4 93576221#5 93576221#6 -136787725#2 173431806 -173431814#0 -479433848#0 38108994#1 38108994#2 38109112#4 -36436967#3 -36054717#3 -36054717#2 -36054717#1 -36054475#3 -36054475#2 36054475#2"/>
    </vehicle>
    <vehicle id="veh27" type="passenger" depart="39.09" departLane="best">
        <route edges="479433848#0 -479433848#0 38108994#1 38108994#2 38108994#3 -420294822#1 420294819 420294820#1 -38109115#0 36327857#2 36327857#3 36327857#4 -35133687#2 -35133687#1 -35133687#0 35133711#3 -24403280#0 -112994259#6 59358747#2 59358747#3 -173431796#8 59358822 107218840#1 107218840#2 107218840#3 107218836#0 107218836#1 421821814#0"/>
    </vehicle>
    <vehicle id="veh28" type="passenger" depart="40.54" departLane="best">
        <route edges="-36054712#1 36054712#1 36054712#2 36054724#1 93576221#11 66079116#1 66080925#0 66080943#0 66080943#1 66080943#2 66080943#3 66080943#4 66080943#5 66080943#6 66080943#7 66080943#9 -82159777#2 119133765 -98192934#0 -98192938#9 -98192938#8 -98192938#7 -98192938#6 -98192938#5 -98192938#4 -98192938#3 -98193664 97848147#1 -112994285#2 -112994285#1"/>
    </vehicle>
    <vehicle id="veh29" type="passenger" depart="41.99" departLane="best">
        <route edges="-479433848#1 -479433848#0 38108994#1 38108994#2 38108994#3 -420294822#1 420294819 420294820#1 -38109115#0 36327857#2 -38109036#3 -38109036#2 -38109036#1 -38109036#0"/>
    </vehicle>
    <vehicle id="veh30" type="passenger" depart="43.44" departLane="best">
        <route edges="-346768561#7 -346768561#6 -346768561#5 -346768561#4 -59358858#4 -59358858#3 -59358858#2 -59358858#1 -59358858#0 173431796#4 173431796#5 173431796#6 173431796#8 59358897#0 59358897#1 59358897#2 59358897#3"/>
    </vehicle>
    <vehicle id="veh31" type="passenger" depart="44.88" departLane="best">
        <route edges="59358725#2 59358759#0 -36434482#5 -36434482#4 -36434482#3 -36434482#1 27227507#4 36054475#0 36054475#1 36054475#2 36054475#3 36054475#4 36054475#5 36054475#6 36054475#7 36054475#8 36054712#1 36054712#2 36054724#1 93576221#11 66079116#1 66080925#0 66080943#0 66080943#1 66080943#2 66080943#3 66080943#4 66080943#5 66080943#6 66080943#7 66080943#9 82159777#3 82159777#4 82159777#5 241498153 543275531#1 543237964#0 98581271#0 165400216 -165399793#0 543237964#2 -543237964#2"/>
    </vehicle>
    <vehicle id="veh32" type="passenger" depart="46.33" departLane="best">
        <route edges="165399793#1 165399793#2 -543237965#2 -543237965#1 -97860982#4 -97848147#2 -97848147#1 98193664 98192938#3 98192938#4 98192938#5 98192938#6 98192938#7 98192938#8 98192938#9 98192934#0 98192934#1 98192934#2 136784706#0 -136752734#5 -136752734#4 -136752734#3 -136752734#2 118004576#1 118004576#2 116937014#0 116937014#1 116937014#2 116937014#4 116937014#5 116937014#6 116937014#7 116937014#8 -35133687#10 -35133687#9 -35133687#8 -35133687#7 -35133687#6 -35133687#5 -35133687#4 -35133687#3 -35133687#2 -35133687#1 -35133687#0 35133711#3 -24403280#0 -112994259#6 59358747#2 59358747#3 59358897#0 59358897#1 59358897#2 59358702#0 59358702#1 59358702#2 59358702#4 59358702#6 59358702#7 -59358755#2 -59358755#1 -59358755#0 330032677#2 -59358873#0"/>
    </vehicle>
    <vehicle id="veh33" type="passenger" depart="47.78" departLane="best">
        <route edges="59358808#3 -59358808#3 -59358808#2 -59358808#1 61494922#0 61494922#1 -61494924#1 126774206#0 126774206#1 126774206#2 126774206#3 126774206#4 105514530#1 105201129#0 105201129#1 105201129#2 105201129#3 105201129#4 105201129#5 105201129#6"/>
    </vehicle>
    <vehicle id="veh34" type="passenger" depart="49.23" departLane="best">
        <route edges="-368277496 61494922#1 105317901 364688017#3 364688017#4 59358808#1 59358808#2 59358808#3 59358808#4 59358808#5 59358847 112994259#5 112994259#6 24403280#0 -35133711#3 35133687#0 35133687#1 35133687#2 -36327857#4 -36327857#3 -36327857#2"/>
    </vehicle>
    <vehicle id="veh35" type="passenger" depart="50.68" departLane="best">
        <route edges="119132980 40542210#6 40542210#7 -116930767#4 -116930767#3 -116930767#2 -116930767#1 -116930767#0 116937014#0 116937014#1 116937014#2 116937014#4 116937014#5 116937014#6 116937014#7 116937014#8 93576221#3 93576221#4 93576221#5 93576221#6 -136787725#2 173431806 -173431814#0 -479433848#0 -38108994#0"/>
    </vehicle>
    <vehicle id="veh36" type="passenger" depart="52.12" departLane="best">
        <route edges="133881868#0 133881868#1 61494955 61494924#1 105317901 364688017#3 364688017#4 59358808#1 59358808#2 59358808#3"/>
    </vehicle>
    <vehicle id="veh37" type="passenger" depart="53.57" departLane="best">
        <route edges="-59358808#2 59358808#2 59358808#3 59358808#4 59358808#5 59358847 112994259#5 112994259#6 24403280#0 -35133711#3"/>
    </vehicle>
    <vehicle id="veh38" type="passenger" depart="55.02" departLane="best">
        <route edges="98581271#0 98192938#0 98192938#1 98192938#2 98192938#3 98192938#4 98192938#5 98192938#6 98192938#7 98192938#8 98192938#9 98192934#0 98192934#1 98192934#2 136784706#0 136784706#1 116930767#4 -40542210#7 -40542210#6 -40542210#5 -40542210#4 -136775502#7 -136775502#6 117916073#0 117916073#1 117916073#2 117916073#3"/>
    </vehicle>
    <vehicle id="veh39" type="passenger" depart="56.47" departLane="best">
        <route edges="-119132982 -329620749#0 -118926933#4 -118926933#3 -118926933#2 119132984#0 -119132981#3 -119132981#2 -119132981#1 -119132981#0 -119132970#0 -118926933#0 136752733#1 136752733#2 136752733#3 -116937014#4"/>
    </vehicle>
    <vehicle id="veh41" type="passenger" depart="59.36" departLane="best">
        <route edges="-117933624#2 116928408#1 116928408#2 136775502#2 136775502#3 136775502#4 136775502#6 136775502#7 40542210#4 40542210#5 40542210#6 40542210#7 -116930767#4 -116930767#3 -116930767#2 -116930767#1 -116930767#0 116937014#0 116937014#1 116937014#2 116937014#4 116937014#5 116937014#6 116937014#7 116937014#8 -35133687#10 -35133687#9 -35133687#8 -35133687#7 -35133687#6 -35133687#5 -35133687#4 -35133687#3 -35133687#2 -35133687#1 -35133687#0 35133711#3 -24403280#0 -112994259#6 -112994259#5 -59358847 -59358808#5 -59358808#4 -59358808#3 -59358808#2 -59358808#1 61494922#0 61494922#1 -61494924#1 126774206#0 126774206#1 126774206#2 126774206#3 -59358829"/>
    </vehicle>
    <vehicle id="veh42" type="passenger" depart="60.81" departLane="best">
        <route edges="98192938#9 98192934#0 98192934#1 98192934#2 136784706#0 -136752734#5 -136752734#4 -136752734#3 -136752734#2 118004576#1 118004576#2 118004576#4 118004576#5 118004576#6 118004576#7 118004576#8 -118926933#4 118926925#0 118926925#1"/>
    </vehicle>
    <vehicle id="veh43" type="passenger" depart="62.26" departLane="best">
        <route edges="97848147#2 -97848147#2 -97848147#1 98193664 98192938#3 98192938#4 98192938#5 98192938#6 98192938#7 98192938#8 98192938#9 98192934#0 98192934#1 98192934#2 136784706#0 -136752734#5 -136752734#4 -136752734#3 -136752734#2 118004576#1 118004576#2 116937014#0 116937014#1 116937014#2 116937014#4 116937014#5 116937014#6 116937014#7 116937014#8 -35133687#10 -35133687#9 -35133687#8 -35133687#7 -35133687#6 -35133687#5 -35133687#4 -35133687#3 -35133687#2 -35133687#1 -35133687#0 35133711#3 -24403280#0 -112994259#6 -112994259#5 -59358847 -59358808#5 -59358808#4 -59358808#3 -59358808#2 59358706#1"/>
    </vehicle>
    <vehicle id="veh44" type="passenger" depart="63.71" departLane="best">
        <route edges="-105201135 -105201134#2 -105201134#1 -105514530#2 -105514530#1 -105514530#0 128510750#8 -364686199#1 364686199#1"/>
    </vehicle>
    <vehicle id="veh45" type="passenger" depart="65.16" departLane="best">
        <route edges="217529762#0 -36434482#4 -36434482#3 -36434482#1 27227507#4 36054475#0 -36054714#2 -36054714#1 -36054714#0 35133711#0 -38108994#8 -38108994#7 -38108994#6 -38108994#5 -38108994#4 -38108994#3 -38108994#2 -38108994#1 479433848#0 173431814#0 173431814#1 461556554#0 136787651#0 366188176#0 366188176#1 366188176#2 -136752733#4 -136752733#3 -136752733#2 -136752733#1 -136752733#0 119132973#2 119132973#3 119132973#4 119132973#5"/>
    </vehicle>
    <vehicle id="veh47" type="passenger" depart="68.05" departLane="best">
        <route edges="-136752731#0 136752731#0 136752731#1 136752733#3 -116937014#4 -116937014#2 -116937014#1 -116937014#0 -118004576#2 -118004576#1 136752734#2 136752734#3 136752734#4 136752734#5 -136784706#0 -98192934#2 -98192934#1 -98192934#0 -98192938#9 -98192938#8 -98192938#7 -98192938#6 -98192938#5 -98192938#4 -98192938#3 -98193664 97848147#1 97848147#2 -97860982#3 -97860982#2 -97860982#1"/>
    </vehicle>
    <vehicle id="veh48" type="passenger" depart="69.50" departLane="best">
        <route edges="59358725#1 59358725#2 59358759#0 -36434482#5 -36434482#4 -36434482#3 -36434482#1 27227507#4 36054475#0 -36054714#2 -36054714#1 -36054714#0 35133711#0 -38108994#8 -38108994#7 -38108994#6 -38108994#5 -38108994#4 -38108994#3 -38108994#2 -38108994#1"/>
    </vehicle>
    <vehicle id="veh49" type="passenger" depart="70.95" departLane="best">
        <route edges="105201135 -105201135 -105201134#2 -105201134#1 -105514530#2 -105514530#1 -105514530#0 -107218840#8 -107218840#6 -107218840#5 -107218840#4 107218836#0 -217529752#1 -217529752#0"/>
    </vehicle>
    <vehicle id="veh50" type="passenger" depart="72.40" departLane="best">
        <route edges="-40542210#2 -329620749#3 -329620749#2 -329620749#1 -329620749#0 -118926933#4 -118926933#3 -118926933#2 119132984#0 -119132981#3 -119132981#2 -119132981#1 -119132981#0 -119132970#0 -118926933#0 136752733#1 136752733#2 -136752731#1 -136752731#0 -136787651#2 116937014#8 -35133687#10 -35133687#9 -35133687#8 -35133687#7 -35133687#6 -35133687#5 -35133687#4 -35133687#3 -35133687#2 -35133687#1 -35133687#0 35133711#3 -24403280#0 -112994259#6 59358747#2 59358747#3 59358897#0 59358897#1 59358897#2 59358702#0 59358702#1 217529762#0 217529762#1"/>
    </vehicle>
    <vehicle id="veh51" type="passenger" depart="73.84" departLane="best">
        <route edges="136775502#7 40542210#4 40542210#5 40542210#6 40542210#7 -116930767#4 -136784706#1 -136784706#0 -98192934#2 136789237#1 -136792697#1"/>
    </vehicle>
    <vehicle id="veh52" type="passenger" depart="75.29" departLane="best">
        <route edges="364686199#1 364688017#0 -107218840#8 -107218840#6 -107218840#5 -59358698 173431796#3 173431796#4 173431796#5 173431796#6 173431796#8 -59358747#3 -59358747#2 112994259#6 24403280#0 -35133711#3 35133687#0 35133687#1 35133687#2 35133687#3 35133687#4 35133687#5 35133687#6 35133687#7 35133687#8 35133687#9 35133687#10 -116937014#8 136787651#2 136752731#0 136752731#1 -136752733#2 -136752733#1 118926933#0 119132970#0 119132981#0 119132981#1 119132981#2 119132981#3 -119132984#0 118926933#2 118926933#3 118926933#4 329620749#0 329620749#1 329620749#2 119132978"/>
    </vehicle>
    <vehicle id="veh53" type="passenger" depart="76.74" departLane="best">
        <route edges="38109072#1 -38108994#6 -38108994#5 -38108994#4 -38108994#3 -38108994#2 -38108994#1 479433848#0 173431814#0 173431814#1 461556554#0 136787651#0 366188176#0 366188176#1 366188176#2 -136752733#4 -136752733#3 -136752733#2 -136752733#1 118926933#0"/>
    </vehicle>
    <vehicle id="veh54" type="passenger" depart="78.19" departLane="best">
        <route edges="-105201129#0 105201129#0 105201129#1 105201129#2 105201129#3 105317908#5 126774206#6 -36434482#14 -36434482#12 -36434482#11 -36434482#10 -36434482#9 -36434482#8 -36434482#7 -36434482#6 -36434482#5 -36434482#4 -36434482#3 -36434482#1 27227507#4 36054475#0 36054475#1 36054475#2 36054475#3 36054475#4 36054475#5 36054475#6 36054475#7 36054475#8 36054712#1 36054712#2 36054724#1 93576221#11 66079116#1 66080925#0 66080943#0 66080943#1 66080943#2 66080943#3 66080943#4 66080943#5 66080943#6 112994272#1 -554111199"/>
    </vehicle>
    <vehicle id="veh55" type="passenger" depart="79.63" departLane="best">
        <route edges="-107218840#2 -107218840#1 -107218840#0 59358897#1 59358897#2 59358702#0 59358702#1 217529762#0 36434482#5 36434482#6 36434482#7 36434482#8 36434482#9 59358873#2"/>
    </vehicle>
    <vehicle id="veh56" type="passenger" depart="81.08" departLane="best">
        <route edges="59358738 -59358746#0 105201129#2 105201129#3 105317908#5 126774206#6 -36434482#14 -36434482#12 -36434482#11 -36434482#10 -36434482#9 -36434482#8 -36434482#7 -36434482#6 -36434482#5 -36434482#4 -36434482#3 -36434482#1 27227507#4 36054475#0 -36054714#2 -36054714#1 -36054714#0 35133711#0 -38108994#8 -38108994#7 -38108994#6 -38108994#5 -38108994#4 -38108994#3 -38108994#2 -38108994#1 479433848#0 173431814#0 173431814#1 461556554#0 461556554#1 461556554#2 543277823"/>
    </vehicle>
    <vehicle id="veh57" type="passenger" depart="82.53" departLane="best">
        <route edges="-421821814#0 -107218836#1 -107218836#0 -107218840#3 -107218840#2 -107218840#1 -59358822 173431796#8 -59358747#3 -59358747#2 112994259#6 24403280#0 -35133711#3 35133687#0 35133687#1 35133687#2 35133687#3 35133687#4 35133687#5 35133687#6 35133687#7 35133687#8 35133687#9 35133687#10 -116937014#8 -116937014#7 -116937014#6 -116937014#5 -116937014#4 -116937014#2 -116937014#1 -116937014#0 118004576#4 118004576#5 118004576#6 -118004576#6"/>
    </vehicle>
    <vehicle id="veh58" type="passenger" depart="83.98" departLane="best">
        <route edges="59358732 -107218840#5 -107218840#4 -107218840#3 -107218840#2 -107218840#1 -107218840#0 59358897#1 59358897#2 59358897#3 -36434482#1 27227507#4 36054475#0 36054475#1 36054475#2 36054475#3 36054475#4 36054475#5 36054475#6 36054475#7 36054475#8 36054712#1 36054712#2 36054724#1 93576221#11 66079116#1 66080925#0"/>
    </vehicle>
    <vehicle id="veh59" type="passenger" depart="85.43" departLane="best">
        <route edges="-119132978 329620749#3 40542210#2 40542210#3 40542210#4 40542210#5 40542210#6 40542210#7 -116930767#4 -136784706#1 -136784706#0 -98192934#2 -98192934#1 -119133765 82159777#2 -66080943#9 -66080943#7 112994272#1 112994272#2 112994272#3 112994272#5"/>
    </vehicle>
    <vehicle id="veh60" type="passenger" depart="86.87" departLane="best">
        <route edges="-118004576#1 118004576#1 118004576#2 116937014#0 116937014#1 116937014#2 116937014#4 116937014#5 116937014#6 116937014#7 116937014#8 93576221#3 93576221#4 93576221#5 93576221#6 -136787725#2 173431806 -173431814#0 -479433848#0 38108994#1 38108994#2 38109112#4 -36436967#3 -36054717#3 39297571#1"/>
    </vehicle>
    <vehicle id="veh61" type="passenger" depart="88.32" departLane="best">
        <route edges="364688017#5 112994259#1 112994259#3 112994259#4 112994259#5 112994259#6 24403280#0 -35133711#3 35133687#0 35133687#1 35133687#2 35133687#3 35133687#4 35133687#5 35133687#6 35133687#7 35133687#8 35133687#9 35133687#10 -116937014#8 -116937014#7 -116937014#6 -116937014#5 -116937014#4 136784708#0 136784708#1 136784708#2 461556554#6 461556554#7 461556554#8 461556554#9 82159777#0 -136789237#1"/>
    </vehicle>
    <vehicle id="veh62" type="passenger" depart="89.77" departLane="best">
        <route edges="-97950273#1 -97950273#0 -112994272#3 -112994272#2 -112994272#1 -66080943#6 66081734#0 66081734#1 -136784708#2 -136784708#1 -136784708#0 116937014#4 116937014#5 116937014#6 116937014#7 116937014#8 -35133687#10 -35133687#9 -35133687#8 -35133687#7 -35133687#6 -35133687#5 -35133687#4 -35133687#3 -35133687#2 -35133687#1 -35133687#0 35133711#3 -24403280#0 -112994259#6 -112994259#5 -59358847 -59358808#5 -59358808#4 -59358808#3 -59358808#2 -59358808#1 61494922#0 61494922#1 -61494924#1 126774206#0"/>
    </vehicle>
    <vehicle id="veh63" type="passenger" depart="91.22" departLane="best">
        <route edges="-371381441 136775502#1 136775502#2 136775502#3 136775502#4 136775502#6 136775502#7 40542210#4 40542210#5 40542210#6 40542210#7 -116930767#4 -116930767#3 -116930767#2 -116930767#1 -116930767#0 116937014#0 116937014#1 116937014#2 116937014#4 116937014#5 116937014#6 116937014#7 116937014#8 -35133687#10 -35133687#9 -35133687#8 -35133687#7 -35133687#6 -35133687#5 -35133687#4 -35133687#3 -35133687#2 -35133687#1 -35133687#0 35133711#3 -24403280#0 -112994259#6 59358747#2 59358747#3 -173431796#8 -173431796#6 -173431796#5 -173431796#4 -173431796#3 59358698 107218840#5 107218840#6 107218840#8 105514530#0 105514530#1 105514530#2 105201134#1 105201134#2 105201134#3 59358746#2 59358748#1 59358748#2"/>
    </vehicle>
    <vehicle id="veh64" type="passenger" depart="92.67" departLane="best">
        <route edges="-59358858#4 112994259#4 112994259#5 112994259#6 24403280#0 -35133711#3 35133687#0 -35133687#0"/>
    </vehicle>
    <vehicle id="veh66" type="passenger" depart="95.56" departLane="best">