<?xml version="1.0" encoding="UTF-8"?>
<!-- generated on 2018-02-01 19:06:33.418731 by $Id$
  options: 
-->
<routes xmlns:xsi="http://www.w3.org/2001/XMLSchema-instance" xsi:noNamespaceSchemaLocation="http://sumo.dlr.de/xsd/routes_file.xsd">
    <vType id="pedestrian" vClass="pedestrian" speedDev="0.1"/>
    <person id="ped0" depart="0.00">
        <personTrip from="217529737" to="-112994255#0" modes="public"/>
    </person>
    <person id="ped1" depart="1.72">
        <personTrip from="-38109072#0" to="-36054475#9" modes="public"/>
    </person>
    <person id="ped2" depart="3.43">
        <personTrip from="36436967#5" to="346543268" modes="public"/>
    </person>
    <person id="ped3" depart="5.15">
        <personTrip from="59358755#1" to="-119133765" modes="public"/>
    </person>
    <person id="ped4" depart="6.86">
        <personTrip from="-82159777#1" to="-112994259#6" modes="public"/>
    </person>
    <person id="ped5" depart="8.58">
        <personTrip from="-36054475#2" to="116930767#6" modes="public"/>
    </person>
    <person id="ped6" depart="10.29">
        <personTrip from="-112994255#2" to="-346551692#0" modes="public"/>
    </person>
    <person id="ped7" depart="12.01">
        <personTrip from="24403280#3" to="119132981#3" modes="public"/>
    </person>
    <person id="ped8" depart="13.73">
        <personTrip from="-36054475#5" to="136775502#7" modes="public"/>
    </person>
    <person id="ped9" depart="15.44">
        <personTrip from="450548830" to="-105201134#0" modes="public"/>
    </person>
    <person id="ped10" depart="17.16">
        <personTrip from="420295713" to="36054475#2" modes="public"/>
    </person>
    <person id="ped11" depart="18.87">
        <personTrip from="-59358702#10" to="-173431796#2" modes="public"/>
    </person>
    <person id="ped12" depart="20.59">
        <personTrip from="93576221#10" to="-59358696#0" modes="public"/>
    </person>
    <person id="ped13" depart="22.31">
        <personTrip from="-126774206#7" to="-133881868#0" modes="public"/>
    </person>
    <person id="ped14" depart="24.02">
        <personTrip from="543237965#3" to="136789082" modes="public"/>
    </person>
    <person id="ped15" depart="25.74">
        <personTrip from="421821813#1" to="36434482#5" modes="public"/>
    </person>
    <person id="ped16" depart="27.45">
        <personTrip from="119132973#1" to="97849876#1" modes="public"/>
    </person>
    <person id="ped17" depart="29.17">
        <personTrip from="-59358808#4" to="126774206#5" modes="public"/>
    </person>
    <person id="ped18" depart="30.88">
        <personTrip from="461556554#3" to="165399793#1" modes="public"/>
    </person>
    <person id="ped19" depart="32.60">
        <personTrip from="543470383#2" to="136752733#2" modes="public"/>
    </person>
    <person id="ped20" depart="34.32">
        <personTrip from="36054712#2" to="-116930768#0" modes="public"/>
    </person>
    <person id="ped21" depart="36.03">
        <personTrip from="-36054714#2" to="-39297571#1" modes="public"/>
    </person>
    <person id="ped22" depart="37.75">
        <personTrip from="-119132974" to="-36054717#3" modes="public"/>
    </person>
    <person id="ped23" depart="39.46">
        <personTrip from="-136752731#0" to="-38109112#2" modes="public"/>
    </person>
    <person id="ped24" depart="41.18">
        <personTrip from="173431817#0" to="-59358758#1" modes="public"/>
    </person>
    <person id="ped25" depart="42.90">
        <personTrip from="-59358778" to="-35133687#5" modes="public"/>
    </person>
    <person id="ped26" depart="44.61">
        <personTrip from="-38108994#3" to="61494922#0" modes="public"/>
    </person>
    <person id="ped27" depart="46.33">
        <personTrip from="24403280#0" to="136789776" modes="public"/>
    </person>
    <person id="ped28" depart="48.04">
        <personTrip from="-217529747" to="36434482#4" modes="public"/>
    </person>
    <person id="ped29" depart="49.76">
        <personTrip from="-173431810#1" to="-59358808#5" modes="public"/>
    </person>
    <person id="ped30" depart="51.47">
        <personTrip from="98192938#1" to="217529738" modes="public"/>
    </person>
    <person id="ped31" depart="53.19">
        <personTrip from="128510750#1" to="346768561#7" modes="public"/>
    </person>
    <person id="ped32" depart="54.91">
        <personTrip from="543237961" to="385360495" modes="public"/>
    </person>
    <person id="ped33" depart="56.62">
        <personTrip from="-36054714#3" to="-112994272#3" modes="public"/>
    </person>
    <person id="ped34" depart="58.34">
        <personTrip from="-479433848#1" to="-38108994#4" modes="public"/>
    </person>
    <person id="ped35" depart="60.05">
        <personTrip from="-35133687#7" to="66080943#1" modes="public"/>
    </person>
    <person id="ped36" depart="61.77">
        <personTrip from="59358724#2" to="-479433848#0" modes="public"/>
    </person>
    <person id="ped37" depart="63.49">
        <personTrip from="27227507#5" to="-59358867" modes="public"/>
    </person>
    <person id="ped38" depart="65.20">
        <personTrip from="59358838#0" to="-98581271#3" modes="public"/>
    </person>
    <person id="ped39" depart="66.92">
        <personTrip from="-38108994#0" to="-36434482#3" modes="public"/>
    </person>
    <person id="ped40" depart="68.63">
        <personTrip from="128510750#7" to="-366188176#2" modes="public"/>
    </person>
    <person id="ped41" depart="70.35">
        <personTrip from="136752736" to="59358764#1" modes="public"/>
    </person>
    <person id="ped42" depart="72.06">
        <personTrip from="-59358873#2" to="-36054475#3" modes="public"/>
    </person>
    <person id="ped43" depart="73.78">
        <personTrip from="98581271#2" to="116937014#0" modes="public"/>
    </person>
    <person id="ped44" depart="75.50">
        <personTrip from="-126774206#4" to="-116930768#2" modes="public"/>
    </person>
    <person id="ped45" depart="77.21">
        <personTrip from="-136752733#4" to="173431796#8" modes="public"/>
    </person>
    <person id="ped46" depart="78.93">
        <personTrip from="40341209#0" to="-82159777#2" modes="public"/>
    </person>
    <person id="ped47" depart="80.64">
        <personTrip from="-118004576#1" to="-59358826#0" modes="public"/>
    </person>
    <person id="ped48" depart="82.36">
        <personTrip from="98193664" to="118926925#0" modes="public"/>
    </person>
    <person id="ped49" depart="84.08">
        <personTrip from="97849755#1" to="543470383#1" modes="public"/>
    </person>
    <person id="ped50" depart="85.79">
        <personTrip from="-105317908#1" to="36327857#4" modes="public"/>
    </person>
    <person id="ped51" depart="87.51">
        <personTrip from="346768561#3" to="119132973#3" modes="public"/>
    </person>
    <person id="ped52" depart="89.22">
        <personTrip from="-38108994#3" to="217529752#0" modes="public"/>
    </person>
    <person id="ped53" depart="90.94">
        <personTrip from="-136752734#1" to="-97849876#3" modes="public"/>
    </person>
    <person id="ped54" depart="92.65">
        <personTrip from="-98192938#6" to="82159777#4" modes="public"/>
    </person>
    <person id="ped55" depart="94.37">
        <personTrip from="59358724#1" to="-368277496" modes="public"/>
    </person>
    <person id="ped56" depart="96.09">
        <personTrip from="116930334#2" to="-24403280#0" modes="public"/>
    </person>
    <person id="ped57" depart="97.80">
        <personTrip from="59358829" to="59358702#4" modes="public"/>
    </person>
    <person id="ped58" depart="99.52">
        <personTrip from="-40542210#6" to="217529737" modes="public"/>
    </person>
    <person id="ped59" depart="101.23">
        <personTrip from="136789776" to="-165400216" modes="public"/>
    </person>
    <person id="ped60" depart="102.95">
        <personTrip from="38109071#0" to="119132973#6" modes="public"/>
    </person>
    <person id="ped61" depart="104.67">
        <personTrip from="385360499#1" to="118926933#0" modes="public"/>
    </person>
    <person id="ped62" depart="106.38">
        <personTrip from="-100125332" to="-543237965#5" modes="public"/>
    </person>
    <person id="ped63" depart="108.10">
        <personTrip from="-107218840#1" to="59358878" modes="public"/>
    </person>
    <person id="ped64" depart="109.81">
        <personTrip from="59358725#2" to="461556554#7" modes="public"/>
    </person>
    <person id="ped65" depart="111.53">
        <personTrip from="-421821813#0" to="-117933620#1" modes="public"/>
    </person>
    <person id="ped66" depart="113.24">
        <personTrip from="59358725#1" to="66080943#7" modes="public"/>
    </person>
    <person id="ped67" depart="114.96">
        <personTrip from="-119132984#0" to="112994255#0" modes="public"/>
    </person>
    <person id="ped68" depart="116.68">
        <personTrip from="-118926933#0" to="38109036#2" modes="public"/>
    </person>
    <person id="ped69" depart="118.39">
        <personTrip from="38109112#1" to="-136787652" modes="public"/>
    </person>
    <person id="ped70" depart="120.11">
        <personTrip from="105514530#1" to="126774206#1" modes="public"/>
    </person>
    <person id="ped71" depart="121.82">
        <personTrip from="-38108994#0" to="59358702#8" modes="public"/>
    </person>
    <person id="ped72" depart="123.54">
        <personTrip from="-82159777#3" to="-35133687#8" modes="public"/>
    </person>
    <person id="ped73" depart="125.26">
        <personTrip from="119132973#6" to="36434482#6" modes="public"/>
    </person>
    <person id="ped74" depart="126.97">
        <personTrip from="-346768561#2" to="-450762933#1" modes="public"/>
    </person>
    <person id="ped75" depart="128.69">
        <personTrip from="98192938#8" to="24403280#3" modes="public"/>
    </person>
    <person id="ped76" depart="130.40">
        <personTrip from="-97860982#3" to="117916073#3" modes="public"/>
    </person>
    <person id="ped77" depart="132.12">
        <personTrip from="-136784703" to="-36054712#1" modes="public"/>
    </person>
    <person id="ped78" depart="133.83">
        <personTrip from="-59358698" to="136775502#6" modes="public"/>
    </person>
    <person id="ped79" depart="135.55">
        <personTrip from="-36054716" to="-36054475#4" modes="public"/>
    </person>
    <person id="ped80" depart="137.27">
        <personTrip from="-118926933#2" to="173431810#0" modes="public"/>
    </person>
    <person id="ped81" depart="138.98">
        <personTrip from="-36054714#3" to="59358805" modes="public"/>
    </person>
    <person id="ped82" depart="140.70">
        <personTrip from="543470379" to="-118926933#2" modes="public"/>
    </person>
    <person id="ped83" depart="142.41">
        <personTrip from="-36054724#1" to="330072417" modes="public"/>
    </person>
    <person id="ped84" depart="144.13">
        <personTrip from="-35133711#2" to="-136787727#2" modes="public"/>
    </person>
    <person id="ped85" depart="145.85">
        <personTrip from="59358897#2" to="136752731#1" modes="public"/>
    </person>
    <person id="ped86" depart="147.56">
        <personTrip from="105317908#4" to="385360505#0" modes="public"/>
    </person>
    <person id="ped87" depart="149.28">
        <personTrip from="421821813#1" to="-330032677#2" modes="public"/>
    </person>
    <person id="ped88" depart="150.99">
        <personTrip from="-133881868#0" to="-97849755#1" modes="public"/>
    </person>
    <person id="ped89" depart="152.71">
        <personTrip from="-82159777#4" to="105201134#1" modes="public"/>
    </person>
    <person id="ped90" depart="154.42">
        <personTrip from="36434482#4" to="346543263" modes="public"/>
    </person>
    <person id="ped91" depart="156.14">
        <personTrip from="98187584#2" to="-133881871" modes="public"/>
    </person>
    <person id="ped92" depart="157.86">
        <personTrip from="-59358888#0" to="-59358702#1" modes="public"/>
    </person>
    <person id="ped93" depart="159.57">
        <personTrip from="543470383#2" to="-36434482#6" modes="public"/>
    </person>
    <person id="ped94" depart="161.29">
        <personTrip from="-330032677#2" to="-98192934#2" modes="public"/>
    </person>
    <person id="ped95" depart="163.00">
        <personTrip from="-82159777#1" to="-38109112#3" modes="public"/>
    </person>
    <person id="ped96" depart="164.72">
        <personTrip from="-36434482#8" to="59358863#0" modes="public"/>
    </person>
    <person id="ped97" depart="166.44">
        <personTrip from="-98187584#0" to="543470383#2" modes="public"/>
    </person>
    <person id="ped98" depart="168.15">
        <personTrip from="126774206#2" to="-116937014#4" modes="public"/>
    </person>
    <person id="ped99" depart="169.87">
        <personTrip from="98581271#4" to="464465173#0" modes="public"/>
    </person>
    <person id="ped100" depart="171.58">
        <personTrip from="97849169#0" to="59358873#0" modes="public"/>
    </person>
    <person id="ped101" depart="173.30">
        <personTrip from="543237965#4" to="-173431817#0" modes="public"/>
    </person>
    <person id="ped102" depart="175.01">
        <personTrip from="112994255#0" to="-35133711#1" modes="public"/>
    </person>
    <person id="ped103" depart="176.73">
        <personTrip from="-59358884#0" to="-117933620#2" modes="public"/>
    </person>
    <person id="ped104" depart="178.45">
        <personTrip from="-59358808#5" to="98192468#1" modes="public"/>
    </person>
    <person id="ped105" depart="180.16">
        <personTrip from="-38108994#0" to="385360504#3" modes="public"/>
    </person>
    <person id="ped106" depart="181.88">
        <personTrip from="-98192938#8" to="-82159777#3" modes="public"/>
    </person>
    <person id="ped107" depart="183.59">
        <personTrip from="93576221#10" to="98192938#9" modes="public"/>
    </person>
    <person id="ped108" depart="185.31">
        <personTrip from="128510749#5" to="36327857#1" modes="public"/>
    </person>
    <person id="ped109" depart="187.02">
        <personTrip from="-173431796#10" to="-40542210#3" modes="public"/>
    </person>
    <person id="ped110" depart="188.74">
        <personTrip from="97849169#0" to="136752733#4" modes="public"/>
    </person>
    <person id="ped111" depart="190.46">
        <personTrip from="119132980" to="364692608#0" modes="public"/>
    </person>
    <person id="ped112" depart="192.17">
        <personTrip from="-117933620#0" to="136752736" modes="public"/>
    </person>
    <person id="ped113" depart="193.89">
        <personTrip from="116930767#3" to="543277820" modes="public"/>
    </person>
    <person id="ped114" depart="195.60">
        <personTrip from="-173431796#5" to="93576221#3" modes="public"/>
    </person>
    <person id="ped115" depart="197.32">
        <personTrip from="-119132978" to="-329620748" modes="public"/>
    </person>
    <person id="ped116" depart="199.04">
        <personTrip from="136787651#0" to="346543266" modes="public"/>
    </person>
    <person id="ped117" depart="200.75">
        <personTrip from="-36054721#2" to="-136775502#7" modes="public"/>
    </person>
    <person id="ped118" depart="202.47">
        <personTrip from="59358748#5" to="-36434482#14" modes="public"/>
    </person>
    <person id="ped119" depart="204.18">
        <personTrip from="136787651#0" to="165399793#2" modes="public"/>
    </person>
    <person id="ped120" depart="205.90">
        <personTrip from="-66081734#1" to="136752734#5" modes="public"/>
    </person>
    <person id="ped121" depart="207.61">
        <personTrip from="118004574#1" to="59358897#1" modes="public"/>
    </person>
    <person id="ped122" depart="209.33">
        <personTrip from="-346768561#6" to="36054724#0" modes="public"/>
    </person>
    <person id="ped123" depart="211.05">
        <personTrip from="-36327857#0" to="-59358867" modes="public"/>
    </person>
    <person id="ped124" depart="212.76">
        <personTrip from="343842769#1" to="-40542210#8" modes="public"/>
    </person>
    <person id="ped125" depart="214.48">
        <personTrip from="-49712540" to="368277496" modes="public"/>
    </person>
    <person id="ped126" depart="216.19">
        <personTrip from="-119132970#0" to="-98581271#3" modes="public"/>
    </person>
    <person id="ped127" depart="217.91">
        <personTrip from="98581271#3" to="98193664" modes="public"/>
    </person>
    <person id="ped128" depart="219.63">
        <personTrip from="-119132970#1" to="-35133711#0" modes="public"/>
    </person>
    <person id="ped129" depart="221.34">
        <personTrip from="-38108994#0" to="59358888#3" modes="public"/>
    </person>
    <person id="ped130" depart="223.06">
        <personTrip from="59358732" to="59358726" modes="public"/>
    </person>
    <person id="ped131" depart="224.77">
        <personTrip from="-59358776" to="-173431796#5" modes="public"/>
    </person>
    <person id="ped132" depart="226.49">
        <personTrip from="461556564#0" to="36054712#0" modes="public"/>
    </person>
    <person id="ped133" depart="228.20">
        <personTrip from="136789874#0" to="98192934#1" modes="public"/>
    </person>
    <person id="ped134" depart="229.92">
        <personTrip from="27227507#0" to="-105201134#2" modes="public"/>
    </person>
    <person id="ped135" depart="231.64">
        <personTrip from="461556548#0" to="-40542210#7" modes="public"/>
    </person>
    <person id="ped136" depart="233.35">
        <personTrip from="330031256#0" to="61494955" modes="public"/>
    </person>
    <person id="ped137" depart="235.07">
        <personTrip from="-136789080#2" to="-136752736" modes="public"/>
    </person>
    <person id="ped138" depart="236.78">
        <personTrip from="-136752733#0" to="126774206#6" modes="public"/>
    </person>
    <person id="ped139" depart="238.50">
        <personTrip from="-38109036#2" to="136789083#1" modes="public"/>
    </person>
    <person id="ped140" depart="240.22">
        <personTrip from="36327857#0" to="-346768561#5" modes="public"/>
    </person>
    <person id="ped141" depart="241.93">
        <personTrip from="173431814#0" to="-368277496" modes="public"/>
    </person>
    <person id="ped142" depart="243.65">
        <personTrip from="112994259#3" to="59358805" modes="public"/>
    </person>
    <person id="ped143" depart="245.36">
        <personTrip from="543237965#1" to="-126774206#6" modes="public"/>
    </person>
    <person id="ped144" depart="247.08">
        <personTrip from="-82159777#4" to="-38109112#0" modes="public"/>
    </person>
    <person id="ped145" depart="248.79">
        <personTrip from="-105201129#4" to="38109113#4" modes="public"/>
    </person>
    <person id="ped146" depart="250.51">
        <personTrip from="173431817#2" to="-366188176#0" modes="public"/>
    </person>
    <person id="ped147" depart="252.23">
        <personTrip from="364688017#2" to="126774206#4" modes="public"/>
    </person>
    <person id="ped148" depart="253.94">
        <personTrip from="-97848148#0" to="-105317901" modes="public"/>
    </person>
    <person id="ped149" depart="255.66">
        <personTrip from="-119132973#2" to="59358746#2" modes="public"/>
    </person>
    <person id="ped150" depart="257.37">
        <personTrip from="59358800" to="119132982" modes="public"/>
    </person>
    <person id="ped151" depart="259.09">
        <personTrip from="461556564#2" to="136752734#3" modes="public"/>
    </person>
    <person id="ped152" depart="260.81">
        <personTrip from="-136792697#1" to="-136787651#3" modes="public"/>
    </person>
    <person id="ped153" depart="262.52">
        <personTrip from="-421821813#1" to="59358776" modes="public"/>
    </person>
    <person id="ped154" depart="264.24">
        <personTrip from="40542210#3" to="543470383#1" modes="public"/>
    </person>
    <person id="ped155" depart="265.95">
        <personTrip from="59358776" to="-35133687#6" modes="public"/>
    </person>
    <person id="ped156" depart="267.67">
        <personTrip from="-36434482#7" to="-136752731#3" modes="public"/>
    </person>
    <person id="ped157" depart="269.38">
        <personTrip from="385360501#0" to="59358747#0" modes="public"/>
    </person>
    <person id="ped158" depart="271.10">
        <personTrip from="-59358897#2" to="165400214" modes="public"/>
    </person>
    <person id="ped159" depart="272.82">
        <personTrip from="-173431796#1" to="59358884#0" modes="public"/>
    </person>
    <person id="ped160" depart="274.53">
        <personTrip from="557330602" to="97860982#1" modes="public"/>
    </person>
    <person id="ped161" depart="276.25">
        <personTrip from="450762933#1" to="59358738" modes="public"/>
    </person>
    <person id="ped162" depart="277.96">
        <personTrip from="-112994255#0" to="36436967#5" modes="public"/>
    </person>
    <person id="ped163" depart="279.68">
        <personTrip from="-543283936#0" to="59358884#1" modes="public"/>
    </person>
    <person id="ped164" depart="281.40">
        <personTrip from="420294819" to="557325769" modes="public"/>
    </person>
    <person id="ped165" depart="283.11">
        <personTrip from="450762933#1" to="-38108994#3" modes="public"/>
    </person>
    <person id="ped166" depart="284.83">
        <personTrip from="385361411" to="-136752733#2" modes="public"/>
    </person>
    <person id="ped167" depart="286.54">
        <personTrip from="59358702#8" to="543470376" modes="public"/>
    </person>
    <person id="ped168" depart="288.26">
        <personTrip from="-36054475#8" to="457146567" modes="public"/>
    </person>
    <person id="ped169" depart="289.97">
        <personTrip from="100125332" to="-420294822#1" modes="public"/>
    </person>
    <person id="ped170" depart="291.69">
        <personTrip from="40542210#2" to="-36054714#1" modes="public"/>
    </person>
    <person id="ped171" depart="293.41">
        <personTrip from="-107218840#8" to="-330795894#1" modes="public"/>
    </person>
    <person id="ped172" depart="295.12">
        <personTrip from="-543277821" to="557325769" modes="public"/>
    </person>
    <person id="ped173" depart="296.84">
        <personTrip from="97848147#2" to="-38109112#4" modes="public"/>
    </person>
    <person id="ped174" depart="298.55">
        <personTrip from="217529752#0" to="-59358875" modes="public"/>
    </person>
    <person id="ped175" depart="300.27">
        <personTrip from="97950275#1" to="119132973#1" modes="public"/>
    </person>
    <person id="ped176" depart="301.99">
        <personTrip from="66079116#1" to="-136752736" modes="public"/>
    </person>
    <person id="ped177" depart="303.70">
        <personTrip from="97849755#0" to="-24403280#0" modes="public"/>
    </person>
    <person id="ped178" depart="305.42">
        <personTrip from="93576221#6" to="-38108994#1" modes="public"/>
    </person>
    <person id="ped179" depart="307.13">
        <personTrip from="-136752733#2" to="-97849876#3" modes="public"/>
    </person>
    <person id="ped180" depart="308.85">
        <personTrip from="36434482#4" to="-454707671" modes="public"/>
    </person>
    <person id="ped181" depart="310.56">
        <personTrip from="136789087" to="116937014#4" modes="public"/>
    </person>
    <person id="ped182" depart="312.28">
        <personTrip from="-59358833" to="136752733#0" modes="public"/>
    </person>
    <person id="ped183" depart="314.00">
        <personTrip from="-36436967#5" to="36054715" modes="public"/>
    </person>
    <person id="ped184" depart="315.71">
        <personTrip from="-105201129#1" to="59358869#1" modes="public"/>
    </person>
    <person id="ped185" depart="317.43">
        <personTrip from="119132973#5" to="36327857#2" modes="public"/>
    </person>
    <person id="ped186" depart="319.14">
        <personTrip from="364688017#3" to="330795894#0" modes="public"/>
    </person>
    <person id="ped187" depart="320.86">
        <personTrip from="-59358758#0" to="-118926933#1" modes="public"/>
    </person>
    <person id="ped188" depart="322.58">
        <personTrip from="330031257#0" to="-543277824" modes="public"/>
    </person>
    <person id="ped189" depart="324.29">
        <personTrip from="-454707671" to="543237965#3" modes="public"/>
    </person>
    <person id="ped190" depart="326.01">
        <personTrip from="36327857#3" to="-416707212" modes="public"/>
    </person>
    <person id="ped191" depart="327.72">
        <personTrip from="-421821814#1" to="-61494924#1" modes="public"/>
    </person>
    <person id="ped192" depart="329.44">
        <personTrip from="-59358888#0" to="-40542210#2" modes="public"/>
    </person>
    <person id="ped193" depart="331.15">
        <personTrip from="-136787651#3" to="-82072084" modes="public"/>
    </person>
    <person id="ped194" depart="332.87">
        <personTrip from="66079116#2" to="346551691" modes="public"/>
    </person>
    <person id="ped195" depart="334.59">
        <personTrip from="59358799#0" to="136792293#1" modes="public"/>
    </person>
    <person id="ped196" depart="336.30">
        <personTrip from="-416707212" to="119133765" modes="public"/>
    </person>
    <person id="ped197" depart="338.02">
        <personTrip from="-100125332" to="-385360495" modes="public"/>
    </person>
    <person id="ped198" depart="339.73">
        <personTrip from="-97849169#1" to="136752733#5" modes="public"/>
    </person>
    <person id="ped199" depart="341.45">
        <personTrip from="27227507#4" to="105201129#6" modes="public"/>
    </person>
    <person id="ped200" depart="343.17">
        <personTrip from="-97950277" to="-35133711#1" modes="public"/>
    </person>
    <person id="ped201" depart="344.88">
        <personTrip from="105317908#4" to="59358780#1" modes="public"/>
    </person>
    <person id="ped202" depart="346.60">
        <personTrip from="40542210#3" to="-217529737" modes="public"/>
    </person>
    <person id="ped203" depart="348.31">
        <personTrip from="-119132982" to="117916073#0" modes="public"/>
    </person>
    <person id="ped204" depart="350.03">
        <personTrip from="173431813#0" to="-557325769" modes="public"/>
    </person>
    <person id="ped205" depart="351.74">
        <personTrip from="461556548#2" to="366188176#2" modes="public"/>
    </person>
    <person id="ped206" depart="353.46">
        <personTrip from="343842769#2" to="-36054712#1" modes="public"/>
    </person>
    <person id="ped207" depart="355.18">
        <personTrip from="-346551692#1" to="-107218841" modes="public"/>
    </person>
    <person id="ped208" depart="356.89">
        <personTrip from="-36434482#11" to="105514530#1" modes="public"/>
    </person>
    <person id="ped209" depart="358.61">
        <personTrip from="543273971" to="-119132970#0" modes="public"/>
    </person>
    <person id="ped210" depart="360.32">
        <personTrip from="-66080943#3" to="173431806" modes="public"/>
    </person>
    <person id="ped211" depart="362.04">
        <personTrip from="-346543264" to="36054475#0" modes="public"/>
    </person>
    <person id="ped212" depart="363.76">
        <personTrip from="112994285#0" to="-36434482#10" modes="public"/>
    </person>
    <person id="ped213" depart="365.47">
        <personTrip from="27227507#6" to="-105201132" modes="public"/>
    </person>
    <person id="ped214" depart="367.19">
        <personTrip from="366188176#1" to="38109113#2" modes="public"/>
    </person>
    <person id="ped215" depart="368.90">
        <personTrip from="-136752732#2" to="-82159777#6" modes="public"/>
    </person>
    <person id="ped216" depart="370.62">
        <personTrip from="-241498149" to="93576221#11" modes="public"/>
    </person>
    <person id="ped217" depart="372.33">
        <personTrip from="117933620#0" to="-116937014#4" modes="public"/>
    </person>
    <person id="ped218" depart="374.05">
        <personTrip from="-36434482#7" to="543237965#4" modes="public"/>
    </person>
    <person id="ped219" depart="375.77">
        <personTrip from="-98193664" to="416707215#1" modes="public"/>
    </person>
    <person id="ped220" depart="377.48">
        <personTrip from="330031258#2" to="98192934#2" modes="public"/>
    </person>
    <person id="ped221" depart="379.20">
        <personTrip from="136787651#1" to="66081736" modes="public"/>
    </person>
    <person id="ped222" depart="380.91">
        <personTrip from="59358753" to="136789874#1" modes="public"/>
    </person>
    <person id="ped223" depart="382.63">
        <personTrip from="36327857#2" to="116930767#5" modes="public"/>
    </person>
    <person id="ped224" depart="384.34">
        <personTrip from="461556554#6" to="119132984#1" modes="public"/>
    </person>
    <person id="ped225" depart="386.06">
        <personTrip from="59358764#0" to="364688017#6" modes="public"/>
    </person>
    <person id="ped226" depart="387.78">
        <personTrip from="105514530#0" to="-364692607" modes="public"/>
    </person>
    <person id="ped227" depart="389.49">
        <personTrip from="-36434482#4" to="178923612#0" modes="public"/>
    </person>
    <person id="ped228" depart="391.21">
        <personTrip from="38109112#1" to="117933624#2" modes="public"/>
    </person>
    <person id="ped229" depart="392.92">
        <personTrip from="173431796#6" to="-38109071#1" modes="public"/>
    </person>
    <person id="ped230" depart="394.64">
        <personTrip from="-119132973#5" to="-381455584#0" modes="public"/>
    </person>
    <person id="ped231" depart="396.36">
        <personTrip from="-38109036#1" to="-543237964#2" modes="public"/>
    </person>
    <person id="ped232" depart="398.07">
        <personTrip from="119132973#7" to="-136789237#0" modes="public"/>
    </person>
    <person id="ped233" depart="399.79">
        <personTrip from="-36054717#1" to="35133711#2" modes="public"/>
    </person>
    <person id="ped234" depart="401.50">