<?xml version="1.0" encoding="UTF-8"?>

<!-- generated on Wednesday 31 January 2018 05:22:48 PM IST by Netedit Version 0.32.0
<?xml version="1.0" encoding="UTF-8"?>

<configuration xmlns:xsi="http://www.w3.org/2001/XMLSchema-instance" xsi:noNamespaceSchemaLocation="http://sumo.dlr.de/xsd/netconvertConfiguration.xsd">

    <input>
        <sumo-net-file value="/home/mtuity/Study/Projects/Traffic_Simulation/tutorials/basic/circular_network/circles.net.xml"/>
    </input>

    <output>
        <output-file value="/home/mtuity/Study/Projects/Traffic_Simulation/tutorials/basic/circular_network/circles.net.xml"/>
    </output>

    <processing>
        <no-turnarounds value="true"/>
        <offset.disable-normalization value="true"/>
        <lefthand value="false"/>
        <junctions.corner-detail value="0"/>
        <rectangular-lane-cut value="false"/>
        <walkingareas value="false"/>
    </processing>

</configuration>
-->

<net version="0.27" xmlns:xsi="http://www.w3.org/2001/XMLSchema-instance" xsi:noNamespaceSchemaLocation="http://sumo.dlr.de/xsd/net_file.xsd">

    <location netOffset="0.00,0.00" convBoundary="-0.52,-94.78,277.76,163.38" origBoundary="-10000000000.00,-10000000000.00,10000000000.00,10000000000.00" projParameter="!"/>

    <edge id=":gneJ0_0" function="internal">
        <lane id=":gneJ0_0_0" index="0" speed="13.89" length="1.27" shape="1.30,52.11 1.26,52.48 1.28,52.74 1.39,52.98 1.60,53.29"/>
    </edge>
    <edge id=":gneJ1_0" function="internal">
        <lane id=":gneJ1_0_0" index="0" speed="13.89" length="1.23" shape="67.84,141.02 68.07,141.30 68.26,141.46 68.50,141.56 68.85,141.63"/>
    </edge>
    <edge id=":gneJ4_0" function="internal">
        <lane id=":gneJ4_0_0" index="0" speed="13.89" length="1.28" shape="185.89,161.52 186.21,161.55 186.53,161.51 186.82,161.40 187.10,161.23"/>
    </edge>
    <edge id=":gneJ5_0" function="internal">
        <lane id=":gneJ5_0_0" index="0" speed="13.89" length="1.49" shape="275.02,96.61 275.30,96.35 275.50,96.05 275.63,95.71 275.67,95.33"/>
    </edge>
    <edge id=":gneJ6_0" function="internal">
        <lane id=":gneJ6_0_0" index="0" speed="13.89" length="0.70" shape="276.11,8.42 276.10,8.22 276.09,8.07 276.04,7.94 275.96,7.75"/>
    </edge>
    <edge id=":gneJ7_0" function="internal">
        <lane id=":gneJ7_0_0" index="0" speed="13.89" length="1.50" shape="241.03,-68.07 240.83,-68.40 240.58,-68.66 240.27,-68.85 239.90,-68.97"/>
    </edge>
    <edge id=":gneJ8_0" function="internal">
        <lane id=":gneJ8_0_0" index="0" speed="13.89" length="0.99" shape="124.25,-92.96 123.96,-93.01 123.76,-93.02 123.56,-92.97 123.29,-92.86"/>
    </edge>
    <edge id=":gneJ9_0" function="internal">
        <lane id=":gneJ9_0_0" index="0" speed="13.89" length="1.65" shape="15.55,-46.69 15.18,-46.48 14.90,-46.20 14.70,-45.85 14.60,-45.43"/>
    </edge>

    <edge id="edge1" from="gneJ0" to="gneJ1" priority="1">
        <lane id="edge1_0" index="0" speed="13.89" length="109.93" shape="1.60,53.29 67.84,141.02"/>
    </edge>
    <edge id="edge2" from="gneJ1" to="gneJ4" priority="1">
        <lane id="edge2_0" index="0" speed="13.89" length="118.72" shape="68.85,141.63 185.89,161.52"/>
    </edge>
    <edge id="gneE3" from="gneJ4" to="gneJ5" priority="1">
        <lane id="gneE3_0" index="0" speed="13.89" length="109.11" shape="187.10,161.23 275.02,96.61"/>
    </edge>
    <edge id="gneE4" from="gneJ5" to="gneJ6" priority="1">
        <lane id="gneE4_0" index="0" speed="13.89" length="86.91" shape="275.67,95.33 276.11,8.42"/>
    </edge>
    <edge id="gneE5" from="gneJ6" to="gneJ7" priority="1">
        <lane id="gneE5_0" index="0" speed="13.89" length="83.48" shape="275.96,7.75 241.03,-68.07"/>
    </edge>
    <edge id="gneE6" from="gneJ7" to="gneJ8" priority="1">
        <lane id="gneE6_0" index="0" speed="13.89" length="118.12" shape="239.90,-68.97 124.25,-92.96"/>
    </edge>
    <edge id="gneE7" from="gneJ8" to="gneJ9" priority="1">
        <lane id="gneE7_0" index="0" speed="13.89" length="117.22" shape="123.29,-92.86 15.55,-46.69"/>
    </edge>
    <edge id="gneE8" from="gneJ9" to="gneJ0" priority="1">
        <lane id="gneE8_0" index="0" speed="13.89" length="98.44" shape="14.60,-45.43 1.30,52.11"/>
    </edge>

    <junction id="gneJ0" type="priority" x="-0.52" y="53.21" incLanes="gneE8_0" intLanes=":gneJ0_0_0" shape="0.33,54.25 2.88,52.32 -0.29,51.89">
        <request index="0" response="0" foes="0" cont="0"/>
    </junction>
    <junction id="gneJ1" type="priority" x="67.30" y="143.04" incLanes="edge1_0" intLanes=":gneJ1_0_0" shape="68.58,143.21 69.12,140.05 66.56,141.98">
        <request index="0" response="0" foes="0" cont="0"/>
    </junction>
    <junction id="gneJ4" type="priority" x="186.97" y="163.38" incLanes="edge2_0" intLanes=":gneJ4_0_0" shape="188.05,162.52 186.16,159.94 185.62,163.10">
        <request index="0" response="0" foes="0" cont="0"/>
    </junction>
    <junction id="gneJ5" type="priority" x="277.31" y="96.97" incLanes="gneE3_0" intLanes=":gneJ5_0_0" shape="277.27,95.34 274.07,95.32 275.96,97.90">
        <request index="0" response="0" foes="0" cont="0"/>
    </junction>
    <junction id="gneJ6" type="priority" x="277.76" y="7.71" incLanes="gneE4_0" intLanes=":gneJ6_0_0" shape="277.41,7.08 274.51,8.41 277.71,8.43">
        <request index="0" response="0" foes="0" cont="0"/>
    </junction>
    <junction id="gneJ7" type="priority" x="241.84" y="-70.25" incLanes="gneE5_0" intLanes=":gneJ7_0_0" shape="239.57,-67.40 242.48,-68.74 240.22,-70.53">
        <request index="0" response="0" foes="0" cont="0"/>
    </junction>
    <junction id="gneJ8" type="priority" x="123.58" y="-94.78" incLanes="gneE6_0" intLanes=":gneJ8_0_0" shape="123.92,-91.39 124.57,-94.52 122.66,-94.33">
        <request index="0" response="0" foes="0" cont="0"/>
    </junction>
    <junction id="gneJ9" type="priority" x="13.21" y="-47.48" incLanes="gneE7_0" intLanes=":gneJ9_0_0" shape="16.18,-45.22 14.92,-48.16 13.01,-45.65">
        <request index="0" response="0" foes="0" cont="0"/>
    </junction>

    <connection from="edge1" to="edge2" fromLane="0" toLane="0" via=":gneJ1_0_0" dir="s" state="M"/>
    <connection from="edge2" to="gneE3" fromLane="0" toLane="0" via=":gneJ4_0_0" dir="r" state="M"/>
    <connection from="gneE3" to="gneE4" fromLane="0" toLane="0" via=":gneJ5_0_0" dir="r" state="M"/>
    <connection from="gneE4" to="gneE5" fromLane="0" toLane="0" via=":gneJ6_0_0" dir="s" state="M"/>
    <connection from="gneE5" to="gneE6" fromLane="0" toLane="0" via=":gneJ7_0_0" dir="r" state="M"/>
    <connection from="gneE6" to="gneE7" fromLane="0" toLane="0" via=":gneJ8_0_0" dir="s" state="M"/>
    <connection from="gneE7" to="gneE8" fromLane="0" toLane="0" via=":gneJ9_0_0" dir="r" state="M"/>
    <connection from="gneE8" to="edge1" fromLane="0" toLane="0" via=":gneJ0_0_0" dir="r" state="M"/>

    <connection from=":gneJ0_0" to="edge1" fromLane="0" toLane="0" dir="r" state="M"/>
    <connection from=":gneJ1_0" to="edge2" fromLane="0" toLane="0" dir="s" state="M"/>
    <connection from=":gneJ4_0" to="gneE3" fromLane="0" toLane="0" dir="r" state="M"/>
    <connection from=":gneJ5_0" to="gneE4" fromLane="0" toLane="0" dir="r" state="M"/>
    <connection from=":gneJ6_0" to="gneE5" fromLane="0" toLane="0" dir="s" state="M"/>
    <connection from=":gneJ7_0" to="gneE6" fromLane="0" toLane="0" dir="r" state="M"/>
    <connection from=":gneJ8_0" to="gneE7" fromLane="0" toLane="0" dir="s" state="M"/>
    <connection from=":gneJ9_0" to="gneE8" fromLane="0" toLane="0" dir="r" state="M"/>

</net>
