<?xml version="1.0" encoding="UTF-8"?>

<!-- generated on Wed May 23 16:01:45 2018 by SUMO netconvert Version 0.32.0
<?xml version="1.0" encoding="UTF-8"?>

<configuration xmlns:xsi="http://www.w3.org/2001/XMLSchema-instance" xsi:noNamespaceSchemaLocation="http://sumo.dlr.de/xsd/netconvertConfiguration.xsd">

    <input>
        <osm-files value="test.osm"/>
    </input>

    <output>
        <output-file value="test.net.xml"/>
    </output>

    <projection>
        <proj.utm value="true"/>
    </projection>

</configuration>
-->

<net version="0.27" xmlns:xsi="http://www.w3.org/2001/XMLSchema-instance" xsi:noNamespaceSchemaLocation="http://sumo.dlr.de/xsd/net_file.xsd">

    <location netOffset="-784421.35,-1431493.61" convBoundary="0.00,0.00,2166.20,2944.33" origBoundary="77.621477,12.935664,77.641512,12.962332" projParameter="+proj=utm +zone=43 +ellps=WGS84 +datum=WGS84 +units=m +no_defs"/>

    <type id="highway.bridleway" priority="1" numLanes="1" speed="2.78" allow="pedestrian" oneway="1" width="2.00"/>
    <type id="highway.bus_guideway" priority="1" numLanes="1" speed="27.78" allow="bus" oneway="1"/>
    <type id="highway.cycleway" priority="1" numLanes="1" speed="8.33" allow="bicycle" oneway="0" width="1.00"/>
    <type id="highway.footway" priority="1" numLanes="1" speed="2.78" allow="pedestrian" oneway="1" width="2.00"/>
    <type id="highway.ford" priority="1" numLanes="1" speed="2.78" allow="army" oneway="0"/>
    <type id="highway.living_street" priority="3" numLanes="1" speed="2.78" disallow="tram rail_urban rail rail_electric ship" oneway="0"/>
    <type id="highway.motorway" priority="13" numLanes="2" speed="44.44" allow="private emergency authority army vip passenger hov taxi bus coach delivery truck trailer motorcycle evehicle custom1 custom2" oneway="1"/>
    <type id="highway.motorway_link" priority="12" numLanes="1" speed="22.22" allow="private emergency authority army vip passenger hov taxi bus coach delivery truck trailer motorcycle evehicle custom1 custom2" oneway="1"/>
    <type id="highway.path" priority="1" numLanes="1" speed="2.78" allow="bicycle pedestrian" oneway="1" width="2.00"/>
    <type id="highway.pedestrian" priority="1" numLanes="1" speed="2.78" allow="pedestrian" oneway="1" width="2.00"/>
    <type id="highway.primary" priority="9" numLanes="2" speed="27.78" disallow="tram rail_urban rail rail_electric ship" oneway="0"/>
    <type id="highway.primary_link" priority="8" numLanes="1" speed="22.22" disallow="tram rail_urban rail rail_electric ship" oneway="0"/>
    <type id="highway.raceway" priority="14" numLanes="2" speed="83.33" allow="vip" oneway="0"/>
    <type id="highway.residential" priority="4" numLanes="1" speed="13.89" disallow="tram rail_urban rail rail_electric ship" oneway="0"/>
    <type id="highway.secondary" priority="7" numLanes="2" speed="27.78" disallow="tram rail_urban rail rail_electric ship" oneway="0"/>
    <type id="highway.secondary_link" priority="6" numLanes="1" speed="22.22" disallow="tram rail_urban rail rail_electric ship" oneway="0"/>
    <type id="highway.service" priority="2" numLanes="1" speed="5.56" allow="delivery bicycle pedestrian" oneway="0"/>
    <type id="highway.services" priority="1" numLanes="1" speed="8.33" disallow="tram rail_urban rail rail_electric ship" oneway="0"/>
    <type id="highway.stairs" priority="1" numLanes="1" speed="1.39" allow="pedestrian" oneway="1" width="2.00"/>
    <type id="highway.step" priority="1" numLanes="1" speed="1.39" allow="pedestrian" oneway="1" width="2.00"/>
    <type id="highway.steps" priority="1" numLanes="1" speed="1.39" allow="pedestrian" oneway="1" width="2.00"/>
    <type id="highway.tertiary" priority="6" numLanes="1" speed="22.22" disallow="tram rail_urban rail rail_electric ship" oneway="0"/>
    <type id="highway.tertiary_link" priority="5" numLanes="1" speed="22.22" disallow="tram rail_urban rail rail_electric ship" oneway="0"/>
    <type id="highway.track" priority="1" numLanes="1" speed="5.56" disallow="tram rail_urban rail rail_electric ship" oneway="0"/>
    <type id="highway.trunk" priority="11" numLanes="2" speed="27.78" disallow="tram rail_urban rail rail_electric bicycle pedestrian ship" oneway="0"/>
    <type id="highway.trunk_link" priority="10" numLanes="1" speed="22.22" disallow="tram rail_urban rail rail_electric bicycle pedestrian ship" oneway="0"/>
    <type id="highway.unclassified" priority="5" numLanes="1" speed="13.89" disallow="tram rail_urban rail rail_electric ship" oneway="0"/>
    <type id="highway.unsurfaced" priority="1" numLanes="1" speed="8.33" disallow="tram rail_urban rail rail_electric ship" oneway="0"/>
    <type id="railway.light_rail" priority="15" numLanes="1" speed="27.78" allow="rail_urban" oneway="1"/>
    <type id="railway.preserved" priority="15" numLanes="1" speed="27.78" allow="rail" oneway="1"/>
    <type id="railway.rail" priority="15" numLanes="1" speed="83.33" allow="rail rail_electric" oneway="1"/>
    <type id="railway.subway" priority="15" numLanes="1" speed="27.78" allow="rail_urban" oneway="1"/>
    <type id="railway.tram" priority="15" numLanes="1" speed="13.89" allow="tram" oneway="1"/>

    <edge id=":1666061322_0" function="internal">
        <lane id=":1666061322_0_0" index="0" disallow="tram rail_urban rail rail_electric ship" speed="13.89" length="4.66" shape="1015.70,145.73 1014.34,144.71 1013.20,144.12 1012.29,143.97 1011.59,144.25"/>
    </edge>
    <edge id=":1666061322_1" function="internal">
        <lane id=":1666061322_1_0" index="0" disallow="tram rail_urban rail rail_electric ship" speed="13.89" length="11.03" shape="1015.70,145.73 1013.65,143.42 1012.93,141.09 1013.56,138.75 1015.54,136.38"/>
    </edge>
    <edge id=":1666061322_2" function="internal">
        <lane id=":1666061322_2_0" index="0" disallow="tram rail_urban rail rail_electric ship" speed="13.89" length="4.82" shape="1015.70,145.73 1015.29,144.30 1015.50,143.40 1016.35,143.04 1017.83,143.21"/>
    </edge>
    <edge id=":1666061322_3" function="internal">
        <lane id=":1666061322_3_0" index="0" disallow="tram rail_urban rail rail_electric ship" speed="8.34" length="5.71" shape="1016.77,144.46 1015.42,143.59 1014.11,143.27 1012.83,143.49 1011.59,144.25"/>
    </edge>
    <edge id=":1666061322_4" function="internal">
        <lane id=":1666061322_4_0" index="0" disallow="tram rail_urban rail rail_electric ship" speed="8.34" length="9.59" shape="1016.77,144.46 1014.71,142.29 1013.82,140.22 1014.10,138.25 1015.54,136.38"/>
    </edge>
    <edge id=":1666061322_5" function="internal">
        <lane id=":1666061322_5_0" index="0" disallow="tram rail_urban rail rail_electric ship" speed="8.34" length="1.65" shape="1016.77,144.46 1017.83,143.21"/>
    </edge>
    <edge id=":1666061322_6" function="internal">
        <lane id=":1666061322_6_0" index="0" disallow="tram rail_urban rail rail_electric ship" speed="13.89" length="5.17" shape="1017.75,138.83 1016.83,139.94 1016.53,141.04 1016.87,142.13 1017.83,143.21"/>
    </edge>
    <edge id=":1666061322_7" function="internal">
        <lane id=":1666061322_7_0" index="0" disallow="tram rail_urban rail rail_electric ship" speed="13.89" length="8.21" shape="1017.75,138.83 1011.59,144.25"/>
    </edge>
    <edge id=":1666061322_8" function="internal">
        <lane id=":1666061322_8_0" index="0" disallow="tram rail_urban rail rail_electric ship" speed="13.89" length="2.41" shape="1017.75,138.83 1016.28,139.05 1015.42,138.71"/>
    </edge>
    <edge id=":1666061322_12" function="internal">
        <lane id=":1666061322_12_0" index="0" speed="13.89" length="2.41" shape="1015.42,138.71 1015.17,137.83 1015.54,136.38"/>
    </edge>
    <edge id=":1666061322_9" function="internal">
        <lane id=":1666061322_9_0" index="0" disallow="tram rail_urban rail rail_electric ship" speed="13.89" length="8.10" shape="1009.46,141.73 1015.54,136.38"/>
    </edge>
    <edge id=":1666061322_10" function="internal">
        <lane id=":1666061322_10_0" index="0" disallow="tram rail_urban rail rail_electric ship" speed="13.89" length="3.99" shape="1009.46,141.73 1011.22,140.78 1013.20,140.70"/>
    </edge>
    <edge id=":1666061322_11" function="internal">
        <lane id=":1666061322_11_0" index="0" disallow="tram rail_urban rail rail_electric ship" speed="13.89" length="2.41" shape="1009.46,141.73 1010.93,141.56 1011.78,141.93"/>
    </edge>
    <edge id=":1666061322_13" function="internal">
        <lane id=":1666061322_13_0" index="0" speed="13.89" length="5.30" shape="1013.20,140.70 1015.41,141.51 1017.83,143.21"/>
    </edge>
    <edge id=":1666061322_14" function="internal">
        <lane id=":1666061322_14_0" index="0" speed="13.89" length="2.41" shape="1011.78,141.93 1012.00,142.82 1011.59,144.25"/>
    </edge>
    <edge id=":1666061325_0" function="internal">
        <lane id=":1666061325_0_0" index="0" disallow="tram rail_urban rail rail_electric ship" speed="8.34" length="5.61" shape="1003.14,156.74 1001.76,155.76 1000.45,155.30 999.22,155.37 998.07,155.96"/>
    </edge>
    <edge id=":1666061325_1" function="internal">
        <lane id=":1666061325_1_0" index="0" disallow="tram rail_urban rail rail_electric ship" speed="8.34" length="10.88" shape="1003.14,156.74 1001.17,154.44 1000.49,152.13 1001.11,149.79 1003.02,147.44"/>
    </edge>
    <edge id=":1666061325_2" function="internal">
        <lane id=":1666061325_2_0" index="0" disallow="tram rail_urban rail rail_electric ship" speed="2.78" length="4.82" shape="1003.14,156.74 1002.75,155.31 1002.98,154.41 1003.84,154.06 1005.31,154.26"/>
    </edge>
    <edge id=":1666061325_3" function="internal">
        <lane id=":1666061325_3_0" index="0" disallow="tram rail_urban rail rail_electric ship" speed="8.34" length="5.13" shape="1005.26,149.87 1004.36,150.98 1004.06,152.08 1004.38,153.17 1005.31,154.26"/>
    </edge>
    <edge id=":1666061325_4" function="internal">
        <lane id=":1666061325_4_0" index="0" disallow="tram rail_urban rail rail_electric ship" speed="13.89" length="9.43" shape="1005.26,149.87 1003.20,151.77 1001.77,153.04 1000.28,154.25 998.07,155.96"/>
    </edge>
    <edge id=":1666061325_5" function="internal">
        <lane id=":1666061325_5_0" index="0" disallow="tram rail_urban rail rail_electric ship" speed="13.89" length="2.41" shape="1005.26,149.87 1003.79,150.10 1002.93,149.78"/>
    </edge>
    <edge id=":1666061325_9" function="internal">
        <lane id=":1666061325_9_0" index="0" speed="13.89" length="2.41" shape="1002.93,149.78 1002.67,148.89 1003.02,147.44"/>
    </edge>
    <edge id=":1666061325_6" function="internal">
        <lane id=":1666061325_6_0" index="0" disallow="tram rail_urban rail rail_electric ship" speed="13.89" length="9.12" shape="996.07,153.34 998.21,151.68 999.65,150.51 1001.03,149.28 1003.02,147.44"/>
    </edge>
    <edge id=":1666061325_7" function="internal">
        <lane id=":1666061325_7_0" index="0" disallow="tram rail_urban rail rail_electric ship" speed="8.34" length="4.81" shape="996.07,153.34 998.29,152.14 1000.57,151.90"/>
    </edge>
    <edge id=":1666061325_8" function="internal">
        <lane id=":1666061325_8_0" index="0" disallow="tram rail_urban rail rail_electric ship" speed="13.89" length="2.41" shape="996.07,153.34 997.55,153.24 998.38,153.65"/>
    </edge>
    <edge id=":1666061325_10" function="internal">
        <lane id=":1666061325_10_0" index="0" speed="8.34" length="5.36" shape="1000.57,151.90 1002.91,152.60 1005.31,154.26"/>
    </edge>
    <edge id=":1666061325_11" function="internal">
        <lane id=":1666061325_11_0" index="0" speed="13.89" length="2.41" shape="998.38,153.65 998.55,154.55 998.07,155.96"/>
    </edge>
    <edge id=":1666061330_0" function="internal">
        <lane id=":1666061330_0_0" index="0" disallow="tram rail_urban rail rail_electric ship" speed="2.78" length="4.82" shape="1035.13,177.79 1035.74,179.15 1035.65,180.06 1034.86,180.54 1033.38,180.59"/>
    </edge>
    <edge id=":1666061333_0" function="internal">
        <lane id=":1666061333_0_0" index="0" disallow="tram rail_urban rail rail_electric ship" speed="13.89" length="4.82" shape="950.26,84.62 949.86,83.18 950.08,82.29 950.93,81.93 952.41,82.11"/>
    </edge>
    <edge id=":1666061339_0" function="internal">
        <lane id=":1666061339_0_0" index="0" disallow="tram rail_urban rail rail_electric ship" speed="13.89" length="7.99" shape="1011.43,144.38 1005.46,149.69"/>
    </edge>
    <edge id=":1666061339_1" function="internal">
        <lane id=":1666061339_1_0" index="0" disallow="tram rail_urban rail rail_electric ship" speed="13.89" length="4.24" shape="1011.43,144.38 1009.49,145.51 1007.50,145.62"/>
    </edge>
    <edge id=":1666061339_2" function="internal">
        <lane id=":1666061339_2_0" index="0" disallow="tram rail_urban rail rail_electric ship" speed="13.89" length="2.41" shape="1011.43,144.38 1009.96,144.55 1009.11,144.19"/>
    </edge>
    <edge id=":1666061339_9" function="internal">
        <lane id=":1666061339_9_0" index="0" speed="13.89" length="5.01" shape="1007.50,145.62 1005.48,144.73 1003.43,142.83"/>
    </edge>
    <edge id=":1666061339_10" function="internal">
        <lane id=":1666061339_10_0" index="0" speed="13.89" length="2.41" shape="1009.11,144.19 1008.89,143.29 1009.30,141.86"/>
    </edge>
    <edge id=":1666061339_3" function="internal">
        <lane id=":1666061339_3_0" index="0" disallow="tram rail_urban rail rail_electric ship" speed="13.89" length="3.99" shape="1005.93,140.67 1006.90,141.63 1007.78,142.14 1008.58,142.22 1009.30,141.86"/>
    </edge>
    <edge id=":1666061339_4" function="internal">
        <lane id=":1666061339_4_0" index="0" disallow="tram rail_urban rail rail_electric ship" speed="13.89" length="10.22" shape="1005.93,140.67 1007.45,143.03 1007.87,145.32 1007.21,147.54 1005.46,149.69"/>
    </edge>
    <edge id=":1666061339_5" function="internal">
        <lane id=":1666061339_5_0" index="0" disallow="tram rail_urban rail rail_electric ship" speed="13.89" length="4.82" shape="1005.93,140.67 1006.11,142.15 1005.76,143.00 1004.86,143.23 1003.43,142.83"/>
    </edge>
    <edge id=":1666061339_6" function="internal">
        <lane id=":1666061339_6_0" index="0" disallow="tram rail_urban rail rail_electric ship" speed="13.89" length="5.02" shape="1003.23,147.26 1004.08,146.21 1004.40,145.12 1004.18,143.99 1003.43,142.83"/>
    </edge>
    <edge id=":1666061339_7" function="internal">
        <lane id=":1666061339_7_0" index="0" disallow="tram rail_urban rail rail_electric ship" speed="13.89" length="8.13" shape="1003.23,147.26 1009.30,141.86"/>
    </edge>
    <edge id=":1666061339_8" function="internal">
        <lane id=":1666061339_8_0" index="0" disallow="tram rail_urban rail rail_electric ship" speed="13.89" length="2.41" shape="1003.23,147.26 1004.69,147.03 1005.56,147.36"/>
    </edge>
    <edge id=":1666061339_11" function="internal">
        <lane id=":1666061339_11_0" index="0" speed="13.89" length="2.41" shape="1005.56,147.36 1005.81,148.24 1005.46,149.69"/>
    </edge>
    <edge id=":1837284744_0" function="internal">
        <lane id=":1837284744_0_0" index="0" disallow="tram rail_urban rail rail_electric ship" speed="27.78" length="0.31" shape="1460.07,330.49 1460.03,330.47 1460.00,330.46 1459.97,330.45 1459.92,330.43"/>
        <lane id=":1837284744_0_1" index="1" disallow="tram rail_urban rail rail_electric ship" speed="27.78" length="0.31" shape="1461.43,327.48 1461.30,327.43 1461.22,327.39 1461.13,327.35 1460.99,327.31"/>
    </edge>
    <edge id=":1837284746_0" function="internal">
        <lane id=":1837284746_0_0" index="0" disallow="tram rail_urban rail rail_electric ship" speed="27.78" length="0.56" shape="1444.81,339.17 1445.04,339.25 1445.20,339.31 1445.36,339.38 1445.58,339.49"/>
        <lane id=":1837284746_0_1" index="1" disallow="tram rail_urban rail rail_electric ship" speed="27.78" length="0.56" shape="1443.84,342.33 1443.91,342.35 1443.97,342.37 1444.02,342.39 1444.09,342.43"/>
    </edge>
    <edge id=":2268121004_0" function="internal">
        <lane id=":2268121004_0_0" index="0" disallow="tram rail_urban rail rail_electric ship" speed="13.89" length="4.82" shape="725.72,2945.29 724.33,2945.82 723.42,2945.67 722.99,2944.86 723.04,2943.37"/>
    </edge>
    <edge id=":2327191235_0" function="internal">
        <lane id=":2327191235_0_0" index="0" disallow="tram rail_urban rail rail_electric ship" speed="27.78" length="13.04" shape="1053.35,314.31 1066.41,314.69"/>
        <lane id=":2327191235_0_1" index="1" disallow="tram rail_urban rail rail_electric ship" speed="27.78" length="13.04" shape="1053.26,317.61 1066.28,317.99"/>
    </edge>
    <edge id=":2327191235_2" function="internal">
        <lane id=":2327191235_2_0" index="0" disallow="tram rail_urban rail rail_electric ship" speed="20.84" length="15.61" shape="1053.26,317.61 1057.58,318.32 1060.58,320.19 1062.24,323.24 1062.58,327.46"/>
    </edge>
    <edge id=":2327191235_3" function="internal">
        <lane id=":2327191235_3_0" index="0" disallow="tram rail_urban rail rail_electric ship" speed="20.84" length="12.61" shape="1053.26,317.61 1056.85,318.20 1058.43,319.75 1058.01,322.25 1055.60,325.71"/>
    </edge>
    <edge id=":2327191235_4" function="internal">
        <lane id=":2327191235_4_0" index="0" disallow="tram rail_urban rail rail_electric ship" speed="20.84" length="14.80" shape="1053.10,323.55 1055.84,321.00 1058.94,319.23 1062.42,318.22 1066.28,317.99"/>
    </edge>
    <edge id=":2327191235_5" function="internal">
        <lane id=":2327191235_5_0" index="0" disallow="tram rail_urban rail rail_electric ship" speed="13.89" length="18.96" shape="1053.10,323.55 1057.66,319.22 1060.76,318.43 1062.40,321.18 1062.58,327.46"/>
    </edge>
    <edge id=":2327191235_6" function="internal">
        <lane id=":2327191235_6_0" index="0" disallow="tram rail_urban rail rail_electric ship" speed="13.89" length="4.82" shape="1053.10,323.55 1054.54,323.15 1055.43,323.38 1055.79,324.24 1055.60,325.71"/>
    </edge>
    <edge id=":2327191235_7" function="internal">
        <lane id=":2327191235_7_0" index="0" disallow="tram rail_urban rail rail_electric ship" speed="13.89" length="7.38" shape="1059.28,327.23 1059.21,324.79 1058.58,323.72 1057.37,324.03 1055.60,325.71"/>
    </edge>
    <edge id=":2327191235_8" function="internal">
        <lane id=":2327191235_8_0" index="0" disallow="tram rail_urban rail rail_electric ship" speed="20.84" length="12.99" shape="1059.28,327.23 1059.96,323.10 1061.36,320.18 1063.46,318.48 1066.28,317.99"/>
    </edge>
    <edge id=":2327191235_9" function="internal">
        <lane id=":2327191235_9_0" index="0" disallow="tram rail_urban rail rail_electric ship" speed="13.89" length="4.82" shape="1059.28,327.23 1060.19,326.05 1061.04,325.70 1061.84,326.17 1062.58,327.46"/>
    </edge>
    <edge id=":2327191311_0" function="internal">
        <lane id=":2327191311_0_0" index="0" disallow="tram rail_urban rail rail_electric ship" speed="13.89" length="4.82" shape="852.61,668.53 851.54,669.57 850.64,669.79 849.93,669.22 849.38,667.83"/>
    </edge>
    <edge id=":315208341_0" function="internal">
        <lane id=":315208341_0_0" index="0" disallow="tram rail_urban rail rail_electric ship" speed="25.00" length="5.63" shape="1236.80,316.46 1236.04,317.72 1236.21,318.62 1237.31,319.15 1239.33,319.32"/>
    </edge>
    <edge id=":315208341_1" function="internal">
        <lane id=":315208341_1_0" index="0" disallow="tram rail_urban rail rail_electric ship" speed="22.22" length="13.39" shape="1236.80,316.46 1234.56,319.15 1232.60,321.67 1230.73,324.26 1228.79,327.17"/>
    </edge>
    <edge id=":315208341_2" function="internal">
        <lane id=":315208341_2_0" index="0" disallow="tram rail_urban rail rail_electric ship" speed="22.22" length="2.41" shape="1236.80,316.46 1235.37,316.87 1234.48,316.65"/>
    </edge>
    <edge id=":315208341_9" function="internal">
        <lane id=":315208341_9_0" index="0" speed="22.22" length="2.41" shape="1234.48,316.65 1234.11,315.81 1234.28,314.33"/>
    </edge>
    <edge id=":315208341_3" function="internal">
        <lane id=":315208341_3_0" index="0" disallow="tram rail_urban rail rail_electric ship" speed="27.78" length="15.89" shape="1223.47,319.25 1239.33,319.32"/>
        <lane id=":315208341_3_1" index="1" disallow="tram rail_urban rail rail_electric ship" speed="27.78" length="15.89" shape="1223.42,322.55 1239.34,322.62"/>
    </edge>
    <edge id=":315208341_5" function="internal">
        <lane id=":315208341_5_0" index="0" disallow="tram rail_urban rail rail_electric ship" speed="25.00" length="9.36" shape="1223.42,322.55 1226.85,322.88 1228.89,323.77 1229.54,325.20 1228.79,327.17"/>
    </edge>
    <edge id=":315208341_6" function="internal">
        <lane id=":315208341_6_0" index="0" disallow="tram rail_urban rail rail_electric ship" speed="22.22" length="13.83" shape="1226.01,325.39 1227.99,322.43 1229.95,319.71 1232.01,317.07 1234.28,314.33"/>
    </edge>
    <edge id=":315208341_7" function="internal">
        <lane id=":315208341_7_0" index="0" disallow="tram rail_urban rail rail_electric ship" speed="25.00" length="3.70" shape="1226.01,325.39 1227.50,324.20 1229.21,323.66"/>
    </edge>
    <edge id=":315208341_8" function="internal">
        <lane id=":315208341_8_0" index="0" disallow="tram rail_urban rail rail_electric ship" speed="22.22" length="2.41" shape="1226.01,325.39 1227.37,324.80 1228.29,324.89"/>
    </edge>
    <edge id=":315208341_10" function="internal">
        <lane id=":315208341_10_0" index="0" speed="25.00" length="10.23" shape="1229.21,323.66 1230.22,323.34 1234.17,322.81 1239.34,322.62"/>
    </edge>
    <edge id=":315208341_11" function="internal">
        <lane id=":315208341_11_0" index="0" speed="22.22" length="2.41" shape="1228.29,324.89 1228.76,325.69 1228.79,327.17"/>
    </edge>
    <edge id=":315208342_0" function="internal">
        <lane id=":315208342_0_0" index="0" disallow="tram rail_urban rail rail_electric ship" speed="25.00" length="11.69" shape="1247.04,311.13 1244.20,311.53 1241.57,312.53 1239.15,314.12 1236.93,316.31"/>
    </edge>
    <edge id=":315208342_1" function="internal">
        <lane id=":315208342_1_0" index="0" disallow="tram rail_urban rail rail_electric ship" speed="27.78" length="15.07" shape="1247.04,311.13 1231.90,311.30"/>
        <lane id=":315208342_1_1" index="1" disallow="tram rail_urban rail rail_electric ship" speed="27.78" length="15.07" shape="1246.93,307.84 1231.92,308.00"/>
    </edge>
    <edge id=":315208342_3" function="internal">
        <lane id=":315208342_3_0" index="0" disallow="tram rail_urban rail rail_electric ship" speed="20.84" length="9.38" shape="1246.93,307.84 1243.71,307.63 1241.73,306.75 1240.98,305.20 1241.47,302.97"/>
    </edge>
    <edge id=":315208342_4" function="internal">
        <lane id=":315208342_4_0" index="0" disallow="tram rail_urban rail rail_electric ship" speed="18.05" length="14.27" shape="1244.50,304.28 1242.94,307.56 1241.19,310.59 1239.20,313.47 1236.93,316.31"/>
    </edge>
    <edge id=":315208342_5" function="internal">
        <lane id=":315208342_5_0" index="0" disallow="tram rail_urban rail rail_electric ship" speed="20.84" length="3.92" shape="1244.50,304.28 1243.10,305.93 1241.50,306.66"/>
    </edge>
    <edge id=":315208342_6" function="internal">
        <lane id=":315208342_6_0" index="0" disallow="tram rail_urban rail rail_electric ship" speed="13.89" length="2.52" shape="1244.50,304.28 1243.25,305.09 1242.33,305.14 1242.26,305.05"/>
    </edge>
    <edge id=":315208342_10" function="internal">
        <lane id=":315208342_10_0" index="0" speed="20.84" length="9.74" shape="1241.50,306.66 1240.54,307.10 1236.81,307.79 1231.92,308.00"/>
    </edge>
    <edge id=":315208342_11" function="internal">
        <lane id=":315208342_11_0" index="0" speed="13.89" length="2.30" shape="1242.26,305.05 1241.73,304.44 1241.47,302.97"/>
    </edge>
    <edge id=":315208342_7" function="internal">
        <lane id=":315208342_7_0" index="0" disallow="tram rail_urban rail rail_electric ship" speed="25.00" length="5.59" shape="1234.41,314.18 1235.16,312.93 1234.99,312.03 1233.90,311.49 1231.90,311.30"/>
    </edge>
    <edge id=":315208342_8" function="internal">
        <lane id=":315208342_8_0" index="0" disallow="tram rail_urban rail rail_electric ship" speed="18.05" length="13.29" shape="1234.41,314.18 1236.60,311.46 1238.41,308.87 1239.99,306.13 1241.47,302.97"/>
    </edge>
    <edge id=":315208342_9" function="internal">
        <lane id=":315208342_9_0" index="0" disallow="tram rail_urban rail rail_electric ship" speed="22.22" length="2.41" shape="1234.41,314.18 1235.84,313.77 1236.74,313.98"/>
    </edge>
    <edge id=":315208342_12" function="internal">
        <lane id=":315208342_12_0" index="0" speed="22.22" length="2.41" shape="1236.74,313.98 1237.10,314.83 1236.93,316.31"/>
    </edge>
    <edge id=":3870649401_0" function="internal">
        <lane id=":3870649401_0_0" index="0" disallow="tram rail_urban rail rail_electric ship" speed="27.78" length="9.52" shape="1025.23,313.60 1034.74,313.84"/>
        <lane id=":3870649401_0_1" index="1" disallow="tram rail_urban rail rail_electric ship" speed="27.78" length="9.52" shape="1025.14,316.90 1034.66,317.14"/>
    </edge>
    <edge id=":3870649401_2" function="internal">
        <lane id=":3870649401_2_0" index="0" disallow="tram rail_urban rail rail_electric ship" speed="20.84" length="8.05" shape="1025.14,316.90 1027.98,317.19 1029.95,317.88 1031.07,318.99 1031.34,320.50"/>
    </edge>
    <edge id=":3870649401_3" function="internal">
        <lane id=":3870649401_3_0" index="0" disallow="tram rail_urban rail rail_electric ship" speed="20.84" length="7.97" shape="1028.05,320.19 1028.58,318.79 1029.86,317.82 1031.88,317.27 1034.66,317.14"/>
    </edge>
    <edge id=":3870649401_4" function="internal">
        <lane id=":3870649401_4_0" index="0" disallow="tram rail_urban rail rail_electric ship" speed="13.89" length="4.82" shape="1028.05,320.19 1028.99,319.03 1029.85,318.70 1030.64,319.19 1031.34,320.50"/>
    </edge>
    <edge id=":3870649402_0" function="internal">
        <lane id=":3870649402_0_0" index="0" disallow="tram rail_urban rail rail_electric ship" speed="13.89" length="21.80" shape="1034.06,352.46 1032.24,356.95 1029.85,362.59 1027.73,368.29 1026.74,372.93"/>
    </edge>
    <edge id=":3870649402_1" function="internal">
        <lane id=":3870649402_1_0" index="0" disallow="tram rail_urban rail rail_electric ship" speed="13.89" length="23.21" shape="1034.06,352.46 1031.77,356.96 1028.01,362.42 1023.73,367.40 1019.85,370.49"/>
    </edge>
    <edge id=":3870649402_2" function="internal">
        <lane id=":3870649402_2_0" index="0" disallow="tram rail_urban rail rail_electric ship" speed="13.89" length="40.71" shape="1034.06,352.46 1028.85,365.34 1025.70,368.65 1024.59,362.37 1025.54,346.52"/>
    </edge>
    <edge id=":3870649402_3" function="internal">
        <lane id=":3870649402_3_0" index="0" disallow="tram rail_urban rail rail_electric ship" speed="13.89" length="6.22" shape="1034.06,352.46 1032.15,352.39 1031.14,351.75 1031.04,350.57 1031.85,348.83"/>
    </edge>
    <edge id=":3870649402_4" function="internal">
        <lane id=":3870649402_4_0" index="0" disallow="tram rail_urban rail rail_electric ship" speed="13.89" length="14.33" shape="1028.82,346.84 1028.49,352.39 1028.89,354.58 1030.00,353.39 1031.85,348.83"/>
    </edge>
    <edge id=":3870649402_5" function="internal">
        <lane id=":3870649402_5_0" index="0" disallow="tram rail_urban rail rail_electric ship" speed="13.89" length="26.18" shape="1028.82,346.84 1026.74,372.93"/>
    </edge>
    <edge id=":3870649402_6" function="internal">
        <lane id=":3870649402_6_0" index="0" disallow="tram rail_urban rail rail_electric ship" speed="13.89" length="15.14" shape="1028.82,346.84 1027.54,355.88 1025.94,361.67"/>
    </edge>
    <edge id=":3870649402_7" function="internal">
        <lane id=":3870649402_7_0" index="0" disallow="tram rail_urban rail rail_electric ship" speed="13.89" length="2.41" shape="1028.82,346.84 1027.88,347.99 1027.02,348.32"/>
    </edge>
    <edge id=":3870649402_16" function="internal">
        <lane id=":3870649402_16_0" index="0" speed="13.89" length="10.96" shape="1025.94,361.67 1025.61,362.84 1023.05,367.71 1019.85,370.49"/>
    </edge>
    <edge id=":3870649402_17" function="internal">
        <lane id=":3870649402_17_0" index="0" speed="13.89" length="2.41" shape="1027.02,348.32 1026.24,347.83 1025.54,346.52"/>
    </edge>
    <edge id=":3870649402_8" function="internal">
        <lane id=":3870649402_8_0" index="0" disallow="tram rail_urban rail rail_electric ship" speed="13.89" length="22.80" shape="1018.39,367.53 1020.86,365.22 1022.87,360.95 1024.43,354.72 1025.54,346.52"/>
    </edge>
    <edge id=":3870649402_9" function="internal">
        <lane id=":3870649402_9_0" index="0" disallow="tram rail_urban rail rail_electric ship" speed="13.89" length="23.29" shape="1018.39,367.53 1022.15,364.34 1026.17,359.12 1029.67,353.43 1031.85,348.83"/>
    </edge>
    <edge id=":3870649402_10" function="internal">
        <lane id=":3870649402_10_0" index="0" disallow="tram rail_urban rail rail_electric ship" speed="13.89" length="13.38" shape="1018.39,367.53 1022.17,366.26 1024.83,366.74 1026.35,368.96 1026.74,372.93"/>
    </edge>
    <edge id=":3870649402_11" function="internal">
        <lane id=":3870649402_11_0" index="0" disallow="tram rail_urban rail rail_electric ship" speed="13.89" length="4.82" shape="1018.39,367.53 1019.86,367.72 1020.60,368.28 1020.59,369.20 1019.85,370.49"/>
    </edge>
    <edge id=":3870649402_12" function="internal">
        <lane id=":3870649402_12_0" index="0" disallow="tram rail_urban rail rail_electric ship" speed="13.89" length="5.76" shape="1023.45,372.82 1023.28,371.11 1022.62,370.15 1021.48,369.94 1019.85,370.49"/>
    </edge>