<?xml version="1.0" encoding="UTF-8"?>

<!-- generated on Thu May 24 16:09:19 2018 by SUMO netconvert Version 0.32.0
<?xml version="1.0" encoding="UTF-8"?>

<configuration xmlns:xsi="http://www.w3.org/2001/XMLSchema-instance" xsi:noNamespaceSchemaLocation="http://sumo.dlr.de/xsd/netconvertConfiguration.xsd">

    <input>
        <sumo-net-file value="test.net.xml"/>
        <node-files value="nodes.xml"/>
    </input>

    <output>
        <output-file value="test_junctionjoin4.net.xml"/>
        <junctions.join-output value="jjj.xml"/>
    </output>

    <processing>
        <no-turnarounds value="true"/>
        <offset.disable-normalization value="true"/>
        <lefthand value="false"/>
        <junctions.corner-detail value="0"/>
        <rectangular-lane-cut value="false"/>
        <walkingareas value="false"/>
    </processing>

</configuration>
-->

<net version="0.27" xmlns:xsi="http://www.w3.org/2001/XMLSchema-instance" xsi:noNamespaceSchemaLocation="http://sumo.dlr.de/xsd/net_file.xsd">

    <location netOffset="-784421.35,-1431493.61" convBoundary="0.00,0.00,2166.20,2944.33" origBoundary="77.621477,12.935664,77.641512,12.962332" projParameter="+proj=utm +zone=43 +ellps=WGS84 +datum=WGS84 +units=m +no_defs"/>

    <type id="highway.bridleway" priority="1" numLanes="1" speed="2.78" allow="pedestrian" oneway="1" width="2.00"/>
    <type id="highway.bus_guideway" priority="1" numLanes="1" speed="27.78" allow="bus" oneway="1"/>
    <type id="highway.cycleway" priority="1" numLanes="1" speed="8.33" allow="bicycle" oneway="0" width="1.00"/>
    <type id="highway.footway" priority="1" numLanes="1" speed="2.78" allow="pedestrian" oneway="1" width="2.00"/>
    <type id="highway.ford" priority="1" numLanes="1" speed="2.78" allow="army" oneway="0"/>
    <type id="highway.living_street" priority="3" numLanes="1" speed="2.78" disallow="tram rail_urban rail rail_electric ship" oneway="0"/>
    <type id="highway.motorway" priority="13" numLanes="2" speed="44.44" allow="private emergency authority army vip passenger hov taxi bus coach delivery truck trailer motorcycle evehicle custom1 custom2" oneway="1"/>
    <type id="highway.motorway_link" priority="12" numLanes="1" speed="22.22" allow="private emergency authority army vip passenger hov taxi bus coach delivery truck trailer motorcycle evehicle custom1 custom2" oneway="1"/>
    <type id="highway.path" priority="1" numLanes="1" speed="2.78" allow="bicycle pedestrian" oneway="1" width="2.00"/>
    <type id="highway.pedestrian" priority="1" numLanes="1" speed="2.78" allow="pedestrian" oneway="1" width="2.00"/>
    <type id="highway.primary" priority="9" numLanes="2" speed="27.78" disallow="tram rail_urban rail rail_electric ship" oneway="0"/>
    <type id="highway.primary_link" priority="8" numLanes="1" speed="22.22" disallow="tram rail_urban rail rail_electric ship" oneway="0"/>
    <type id="highway.raceway" priority="14" numLanes="2" speed="83.33" allow="vip" oneway="0"/>
    <type id="highway.residential" priority="4" numLanes="1" speed="13.89" disallow="tram rail_urban rail rail_electric ship" oneway="0"/>
    <type id="highway.secondary" priority="7" numLanes="2" speed="27.78" disallow="tram rail_urban rail rail_electric ship" oneway="0"/>
    <type id="highway.secondary_link" priority="6" numLanes="1" speed="22.22" disallow="tram rail_urban rail rail_electric ship" oneway="0"/>
    <type id="highway.service" priority="2" numLanes="1" speed="5.56" allow="delivery bicycle pedestrian" oneway="0"/>
    <type id="highway.services" priority="1" numLanes="1" speed="8.33" disallow="tram rail_urban rail rail_electric ship" oneway="0"/>
    <type id="highway.stairs" priority="1" numLanes="1" speed="1.39" allow="pedestrian" oneway="1" width="2.00"/>
    <type id="highway.step" priority="1" numLanes="1" speed="1.39" allow="pedestrian" oneway="1" width="2.00"/>
    <type id="highway.steps" priority="1" numLanes="1" speed="1.39" allow="pedestrian" oneway="1" width="2.00"/>
    <type id="highway.tertiary" priority="6" numLanes="1" speed="22.22" disallow="tram rail_urban rail rail_electric ship" oneway="0"/>
    <type id="highway.tertiary_link" priority="5" numLanes="1" speed="22.22" disallow="tram rail_urban rail rail_electric ship" oneway="0"/>
    <type id="highway.track" priority="1" numLanes="1" speed="5.56" disallow="tram rail_urban rail rail_electric ship" oneway="0"/>
    <type id="highway.trunk" priority="11" numLanes="2" speed="27.78" disallow="tram rail_urban rail rail_electric bicycle pedestrian ship" oneway="0"/>
    <type id="highway.trunk_link" priority="10" numLanes="1" speed="22.22" disallow="tram rail_urban rail rail_electric bicycle pedestrian ship" oneway="0"/>
    <type id="highway.unclassified" priority="5" numLanes="1" speed="13.89" disallow="tram rail_urban rail rail_electric ship" oneway="0"/>
    <type id="highway.unsurfaced" priority="1" numLanes="1" speed="8.33" disallow="tram rail_urban rail rail_electric ship" oneway="0"/>
    <type id="railway.light_rail" priority="15" numLanes="1" speed="27.78" allow="rail_urban" oneway="1"/>
    <type id="railway.preserved" priority="15" numLanes="1" speed="27.78" allow="rail" oneway="1"/>
    <type id="railway.rail" priority="15" numLanes="1" speed="83.33" allow="rail rail_electric" oneway="1"/>
    <type id="railway.subway" priority="15" numLanes="1" speed="27.78" allow="rail_urban" oneway="1"/>
    <type id="railway.tram" priority="15" numLanes="1" speed="13.89" allow="tram" oneway="1"/>

    <edge id=":1666061322_0" function="internal">
        <lane id=":1666061322_0_0" index="0" disallow="tram rail_urban rail rail_electric ship" speed="13.89" length="4.66" shape="1015.70,145.73 1014.34,144.71 1013.21,144.13 1012.29,143.98 1011.59,144.26"/>
    </edge>
    <edge id=":1666061322_1" function="internal">
        <lane id=":1666061322_1_0" index="0" disallow="tram rail_urban rail rail_electric ship" speed="13.89" length="11.01" shape="1015.70,145.73 1013.64,143.42 1012.93,141.10 1013.55,138.76 1015.52,136.40"/>
    </edge>
    <edge id=":1666061322_2" function="internal">
        <lane id=":1666061322_2_0" index="0" disallow="tram rail_urban rail rail_electric ship" speed="13.89" length="4.82" shape="1015.70,145.73 1015.28,144.30 1015.50,143.40 1016.35,143.04 1017.83,143.21"/>
    </edge>
    <edge id=":1666061322_3" function="internal">
        <lane id=":1666061322_3_0" index="0" disallow="tram rail_urban rail rail_electric ship" speed="8.34" length="5.71" shape="1016.77,144.47 1015.42,143.59 1014.11,143.27 1012.83,143.49 1011.59,144.26"/>
    </edge>
    <edge id=":1666061322_4" function="internal">
        <lane id=":1666061322_4_0" index="0" disallow="tram rail_urban rail rail_electric ship" speed="8.34" length="9.58" shape="1016.77,144.47 1014.71,142.29 1013.82,140.23 1014.09,138.26 1015.52,136.40"/>
    </edge>
    <edge id=":1666061322_5" function="internal">
        <lane id=":1666061322_5_0" index="0" disallow="tram rail_urban rail rail_electric ship" speed="8.34" length="1.65" shape="1016.77,144.47 1017.83,143.21"/>
    </edge>
    <edge id=":1666061322_6" function="internal">
        <lane id=":1666061322_6_0" index="0" disallow="tram rail_urban rail rail_electric ship" speed="13.89" length="5.16" shape="1017.75,138.84 1016.83,139.94 1016.53,141.04 1016.87,142.13 1017.83,143.21"/>
    </edge>
    <edge id=":1666061322_7" function="internal">
        <lane id=":1666061322_7_0" index="0" disallow="tram rail_urban rail rail_electric ship" speed="13.89" length="8.21" shape="1017.75,138.84 1011.59,144.26"/>
    </edge>
    <edge id=":1666061322_8" function="internal">
        <lane id=":1666061322_8_0" index="0" disallow="tram rail_urban rail rail_electric ship" speed="13.89" length="2.41" shape="1017.75,138.84 1016.28,139.06 1015.42,138.73"/>
    </edge>
    <edge id=":1666061322_12" function="internal">
        <lane id=":1666061322_12_0" index="0" speed="13.89" length="2.41" shape="1015.42,138.73 1015.16,137.85 1015.52,136.40"/>
    </edge>
    <edge id=":1666061322_9" function="internal">
        <lane id=":1666061322_9_0" index="0" disallow="tram rail_urban rail rail_electric ship" speed="13.89" length="8.07" shape="1009.46,141.74 1015.52,136.40"/>
    </edge>
    <edge id=":1666061322_10" function="internal">
        <lane id=":1666061322_10_0" index="0" disallow="tram rail_urban rail rail_electric ship" speed="13.89" length="3.99" shape="1009.46,141.74 1011.22,140.78 1013.21,140.71"/>
    </edge>
    <edge id=":1666061322_11" function="internal">
        <lane id=":1666061322_11_0" index="0" disallow="tram rail_urban rail rail_electric ship" speed="13.89" length="2.41" shape="1009.46,141.74 1010.94,141.57 1011.78,141.93"/>
    </edge>
    <edge id=":1666061322_13" function="internal">
        <lane id=":1666061322_13_0" index="0" speed="13.89" length="5.30" shape="1013.21,140.71 1015.41,141.52 1017.83,143.21"/>
    </edge>
    <edge id=":1666061322_14" function="internal">
        <lane id=":1666061322_14_0" index="0" speed="13.89" length="2.41" shape="1011.78,141.93 1012.00,142.83 1011.59,144.26"/>
    </edge>
    <edge id=":1666061325_0" function="internal">
        <lane id=":1666061325_0_0" index="0" disallow="tram rail_urban rail rail_electric ship" speed="8.34" length="5.61" shape="1003.14,156.74 1001.76,155.76 1000.45,155.31 999.22,155.37 998.07,155.96"/>
    </edge>
    <edge id=":1666061325_1" function="internal">
        <lane id=":1666061325_1_0" index="0" disallow="tram rail_urban rail rail_electric ship" speed="8.34" length="10.89" shape="1003.14,156.74 1001.17,154.44 1000.49,152.13 1001.11,149.80 1003.02,147.45"/>
    </edge>
    <edge id=":1666061325_2" function="internal">
        <lane id=":1666061325_2_0" index="0" disallow="tram rail_urban rail rail_electric ship" speed="2.78" length="4.82" shape="1003.14,156.74 1002.75,155.31 1002.98,154.42 1003.84,154.07 1005.31,154.26"/>
    </edge>
    <edge id=":1666061325_3" function="internal">
        <lane id=":1666061325_3_0" index="0" disallow="tram rail_urban rail rail_electric ship" speed="8.34" length="5.13" shape="1005.26,149.88 1004.35,150.98 1004.06,152.08 1004.38,153.18 1005.31,154.26"/>
    </edge>
    <edge id=":1666061325_4" function="internal">
        <lane id=":1666061325_4_0" index="0" disallow="tram rail_urban rail rail_electric ship" speed="13.89" length="9.43" shape="1005.26,149.88 1003.20,151.77 1001.77,153.04 1000.28,154.25 998.07,155.96"/>
    </edge>
    <edge id=":1666061325_5" function="internal">
        <lane id=":1666061325_5_0" index="0" disallow="tram rail_urban rail rail_electric ship" speed="13.89" length="2.41" shape="1005.26,149.88 1003.79,150.11 1002.93,149.78"/>
    </edge>
    <edge id=":1666061325_9" function="internal">
        <lane id=":1666061325_9_0" index="0" speed="13.89" length="2.41" shape="1002.93,149.78 1002.67,148.89 1003.02,147.45"/>
    </edge>
    <edge id=":1666061325_6" function="internal">
        <lane id=":1666061325_6_0" index="0" disallow="tram rail_urban rail rail_electric ship" speed="13.89" length="9.12" shape="996.07,153.34 998.21,151.69 999.65,150.51 1001.03,149.28 1003.02,147.45"/>
    </edge>
    <edge id=":1666061325_7" function="internal">
        <lane id=":1666061325_7_0" index="0" disallow="tram rail_urban rail rail_electric ship" speed="8.34" length="4.81" shape="996.07,153.34 998.28,152.14 1000.57,151.90"/>
    </edge>
    <edge id=":1666061325_8" function="internal">
        <lane id=":1666061325_8_0" index="0" disallow="tram rail_urban rail rail_electric ship" speed="13.89" length="2.41" shape="996.07,153.34 997.55,153.24 998.38,153.65"/>
    </edge>
    <edge id=":1666061325_10" function="internal">
        <lane id=":1666061325_10_0" index="0" speed="8.34" length="5.37" shape="1000.57,151.90 1002.91,152.61 1005.31,154.26"/>
    </edge>
    <edge id=":1666061325_11" function="internal">
        <lane id=":1666061325_11_0" index="0" speed="13.89" length="2.41" shape="998.38,153.65 998.55,154.56 998.07,155.96"/>
    </edge>
    <edge id=":1666061330_0" function="internal">
        <lane id=":1666061330_0_0" index="0" disallow="tram rail_urban rail rail_electric ship" speed="2.78" length="4.82" shape="1035.13,177.79 1035.74,179.15 1035.65,180.07 1034.86,180.55 1033.37,180.59"/>
    </edge>
    <edge id=":1666061333_0" function="internal">
        <lane id=":1666061333_0_0" index="0" disallow="tram rail_urban rail rail_electric ship" speed="13.89" length="4.82" shape="950.27,84.61 949.86,83.18 950.09,82.29 950.94,81.93 952.41,82.11"/>
    </edge>
    <edge id=":1666061339_0" function="internal">
        <lane id=":1666061339_0_0" index="0" disallow="tram rail_urban rail rail_electric ship" speed="13.89" length="7.99" shape="1011.43,144.39 1005.46,149.69"/>
    </edge>
    <edge id=":1666061339_1" function="internal">
        <lane id=":1666061339_1_0" index="0" disallow="tram rail_urban rail rail_electric ship" speed="13.89" length="4.24" shape="1011.43,144.39 1009.49,145.51 1007.50,145.63"/>
    </edge>
    <edge id=":1666061339_2" function="internal">
        <lane id=":1666061339_2_0" index="0" disallow="tram rail_urban rail rail_electric ship" speed="13.89" length="2.41" shape="1011.43,144.39 1009.96,144.55 1009.11,144.19"/>
    </edge>
    <edge id=":1666061339_9" function="internal">
        <lane id=":1666061339_9_0" index="0" speed="13.89" length="5.01" shape="1007.50,145.63 1005.49,144.73 1003.43,142.83"/>
    </edge>
    <edge id=":1666061339_10" function="internal">
        <lane id=":1666061339_10_0" index="0" speed="13.89" length="2.41" shape="1009.11,144.19 1008.89,143.29 1009.31,141.87"/>
    </edge>
    <edge id=":1666061339_3" function="internal">
        <lane id=":1666061339_3_0" index="0" disallow="tram rail_urban rail rail_electric ship" speed="13.89" length="3.99" shape="1005.93,140.68 1006.90,141.63 1007.78,142.14 1008.58,142.22 1009.31,141.87"/>
    </edge>
    <edge id=":1666061339_4" function="internal">
        <lane id=":1666061339_4_0" index="0" disallow="tram rail_urban rail rail_electric ship" speed="13.89" length="10.22" shape="1005.93,140.68 1007.45,143.04 1007.87,145.32 1007.21,147.54 1005.46,149.69"/>
    </edge>
    <edge id=":1666061339_5" function="internal">
        <lane id=":1666061339_5_0" index="0" disallow="tram rail_urban rail rail_electric ship" speed="13.89" length="4.82" shape="1005.93,140.68 1006.11,142.15 1005.76,143.00 1004.86,143.23 1003.43,142.83"/>
    </edge>
    <edge id=":1666061339_6" function="internal">
        <lane id=":1666061339_6_0" index="0" disallow="tram rail_urban rail rail_electric ship" speed="13.89" length="5.02" shape="1003.23,147.26 1004.08,146.21 1004.40,145.12 1004.18,143.99 1003.43,142.83"/>
    </edge>
    <edge id=":1666061339_7" function="internal">
        <lane id=":1666061339_7_0" index="0" disallow="tram rail_urban rail rail_electric ship" speed="13.89" length="8.13" shape="1003.23,147.26 1009.31,141.87"/>
    </edge>
    <edge id=":1666061339_8" function="internal">
        <lane id=":1666061339_8_0" index="0" disallow="tram rail_urban rail rail_electric ship" speed="13.89" length="2.41" shape="1003.23,147.26 1004.69,147.03 1005.56,147.36"/>
    </edge>
    <edge id=":1666061339_11" function="internal">
        <lane id=":1666061339_11_0" index="0" speed="13.89" length="2.41" shape="1005.56,147.36 1005.81,148.24 1005.46,149.69"/>
    </edge>
    <edge id=":1837284744_0" function="internal">
        <lane id=":1837284744_0_0" index="0" disallow="tram rail_urban rail rail_electric ship" speed="27.78" length="0.31" shape="1460.07,330.49 1460.03,330.47 1460.00,330.46 1459.97,330.45 1459.93,330.43"/>
        <lane id=":1837284744_0_1" index="1" disallow="tram rail_urban rail rail_electric ship" speed="27.78" length="0.31" shape="1461.44,327.48 1461.31,327.42 1461.22,327.39 1461.13,327.35 1461.00,327.31"/>
    </edge>
    <edge id=":1837284746_0" function="internal">
        <lane id=":1837284746_0_0" index="0" disallow="tram rail_urban rail rail_electric ship" speed="27.78" length="0.56" shape="1444.81,339.17 1445.05,339.25 1445.21,339.30 1445.36,339.37 1445.58,339.48"/>
        <lane id=":1837284746_0_1" index="1" disallow="tram rail_urban rail rail_electric ship" speed="27.78" length="0.56" shape="1443.84,342.33 1443.92,342.35 1443.97,342.37 1444.02,342.39 1444.09,342.43"/>
    </edge>
    <edge id=":2268121004_0" function="internal">
        <lane id=":2268121004_0_0" index="0" disallow="tram rail_urban rail rail_electric ship" speed="13.89" length="4.82" shape="725.72,2945.29 724.33,2945.82 723.42,2945.67 722.99,2944.86 723.04,2943.37"/>
    </edge>
    <edge id=":2327191235_0" function="internal">
        <lane id=":2327191235_0_0" index="0" disallow="tram rail_urban rail rail_electric ship" speed="27.78" length="13.04" shape="1053.34,314.31 1066.40,314.70"/>
        <lane id=":2327191235_0_1" index="1" disallow="tram rail_urban rail rail_electric ship" speed="27.78" length="13.04" shape="1053.26,317.61 1066.28,317.99"/>
    </edge>
    <edge id=":2327191235_2" function="internal">
        <lane id=":2327191235_2_0" index="0" disallow="tram rail_urban rail rail_electric ship" speed="20.84" length="15.61" shape="1053.26,317.61 1057.58,318.32 1060.57,320.20 1062.24,323.24 1062.57,327.46"/>
    </edge>
    <edge id=":2327191235_3" function="internal">
        <lane id=":2327191235_3_0" index="0" disallow="tram rail_urban rail rail_electric ship" speed="20.84" length="12.61" shape="1053.26,317.61 1056.84,318.20 1058.43,319.75 1058.01,322.25 1055.59,325.71"/>
    </edge>
    <edge id=":2327191235_4" function="internal">
        <lane id=":2327191235_4_0" index="0" disallow="tram rail_urban rail rail_electric ship" speed="20.84" length="14.80" shape="1053.10,323.55 1055.83,321.01 1058.94,319.23 1062.42,318.23 1066.28,317.99"/>
    </edge>
    <edge id=":2327191235_5" function="internal">
        <lane id=":2327191235_5_0" index="0" disallow="tram rail_urban rail rail_electric ship" speed="13.89" length="18.96" shape="1053.10,323.55 1057.66,319.23 1060.75,318.44 1062.39,321.18 1062.57,327.46"/>
    </edge>
    <edge id=":2327191235_6" function="internal">
        <lane id=":2327191235_6_0" index="0" disallow="tram rail_urban rail rail_electric ship" speed="13.89" length="4.82" shape="1053.10,323.55 1054.53,323.16 1055.43,323.39 1055.78,324.24 1055.59,325.71"/>
    </edge>
    <edge id=":2327191235_7" function="internal">
        <lane id=":2327191235_7_0" index="0" disallow="tram rail_urban rail rail_electric ship" speed="13.89" length="7.38" shape="1059.28,327.24 1059.21,324.79 1058.57,323.72 1057.37,324.03 1055.59,325.71"/>
    </edge>
    <edge id=":2327191235_8" function="internal">
        <lane id=":2327191235_8_0" index="0" disallow="tram rail_urban rail rail_electric ship" speed="20.84" length="12.99" shape="1059.28,327.24 1059.96,323.10 1061.35,320.18 1063.46,318.48 1066.28,317.99"/>
    </edge>
    <edge id=":2327191235_9" function="internal">
        <lane id=":2327191235_9_0" index="0" disallow="tram rail_urban rail rail_electric ship" speed="13.89" length="4.82" shape="1059.28,327.24 1060.19,326.06 1061.04,325.70 1061.83,326.17 1062.57,327.46"/>
    </edge>
    <edge id=":2327191311_0" function="internal">
        <lane id=":2327191311_0_0" index="0" disallow="tram rail_urban rail rail_electric ship" speed="13.89" length="4.82" shape="852.61,668.53 851.54,669.56 850.65,669.79 849.93,669.21 849.39,667.83"/>
    </edge>
    <edge id=":3870649401_0" function="internal">
        <lane id=":3870649401_0_0" index="0" disallow="tram rail_urban rail rail_electric ship" speed="27.78" length="9.52" shape="1025.23,313.61 1034.74,313.84"/>
        <lane id=":3870649401_0_1" index="1" disallow="tram rail_urban rail rail_electric ship" speed="27.78" length="9.52" shape="1025.14,316.91 1034.66,317.14"/>
    </edge>
    <edge id=":3870649401_2" function="internal">
        <lane id=":3870649401_2_0" index="0" disallow="tram rail_urban rail rail_electric ship" speed="20.84" length="8.05" shape="1025.14,316.91 1027.98,317.19 1029.95,317.89 1031.07,318.99 1031.34,320.50"/>
    </edge>
    <edge id=":3870649401_3" function="internal">
        <lane id=":3870649401_3_0" index="0" disallow="tram rail_urban rail rail_electric ship" speed="20.84" length="7.97" shape="1028.05,320.19 1028.58,318.80 1029.86,317.83 1031.88,317.27 1034.66,317.14"/>
    </edge>
    <edge id=":3870649401_4" function="internal">
        <lane id=":3870649401_4_0" index="0" disallow="tram rail_urban rail rail_electric ship" speed="13.89" length="4.82" shape="1028.05,320.19 1028.99,319.03 1029.85,318.70 1030.63,319.19 1031.34,320.50"/>
    </edge>
    <edge id=":3870649402_0" function="internal">
        <lane id=":3870649402_0_0" index="0" disallow="tram rail_urban rail rail_electric ship" speed="13.89" length="21.81" shape="1034.06,352.46 1032.24,356.94 1029.85,362.59 1027.73,368.29 1026.74,372.94"/>
    </edge>
    <edge id=":3870649402_1" function="internal">
        <lane id=":3870649402_1_0" index="0" disallow="tram rail_urban rail rail_electric ship" speed="13.89" length="23.21" shape="1034.06,352.46 1031.77,356.95 1028.01,362.41 1023.73,367.40 1019.85,370.49"/>
    </edge>
    <edge id=":3870649402_2" function="internal">
        <lane id=":3870649402_2_0" index="0" disallow="tram rail_urban rail rail_electric ship" speed="13.89" length="40.69" shape="1034.06,352.46 1028.86,365.33 1025.70,368.63 1024.59,362.36 1025.54,346.51"/>
    </edge>
    <edge id=":3870649402_3" function="internal">
        <lane id=":3870649402_3_0" index="0" disallow="tram rail_urban rail rail_electric ship" speed="13.89" length="6.22" shape="1034.06,352.46 1032.15,352.38 1031.14,351.75 1031.04,350.56 1031.85,348.82"/>
    </edge>
    <edge id=":3870649402_4" function="internal">
        <lane id=":3870649402_4_0" index="0" disallow="tram rail_urban rail rail_electric ship" speed="13.89" length="14.33" shape="1028.82,346.83 1028.49,352.38 1028.89,354.57 1030.01,353.38 1031.85,348.82"/>
    </edge>
    <edge id=":3870649402_5" function="internal">
        <lane id=":3870649402_5_0" index="0" disallow="tram rail_urban rail rail_electric ship" speed="13.89" length="26.19" shape="1028.82,346.83 1026.74,372.94"/>
    </edge>
    <edge id=":3870649402_6" function="internal">
        <lane id=":3870649402_6_0" index="0" disallow="tram rail_urban rail rail_electric ship" speed="13.89" length="15.15" shape="1028.82,346.83 1027.54,355.88 1025.94,361.67"/>
    </edge>
    <edge id=":3870649402_7" function="internal">
        <lane id=":3870649402_7_0" index="0" disallow="tram rail_urban rail rail_electric ship" speed="13.89" length="2.41" shape="1028.82,346.83 1027.88,347.98 1027.02,348.31"/>
    </edge>
    <edge id=":3870649402_16" function="internal">
        <lane id=":3870649402_16_0" index="0" speed="13.89" length="10.97" shape="1025.94,361.67 1025.62,362.84 1023.05,367.71 1019.85,370.49"/>
    </edge>
    <edge id=":3870649402_17" function="internal">
        <lane id=":3870649402_17_0" index="0" speed="13.89" length="2.41" shape="1027.02,348.31 1026.24,347.82 1025.54,346.51"/>
    </edge>
    <edge id=":3870649402_8" function="internal">
        <lane id=":3870649402_8_0" index="0" disallow="tram rail_urban rail rail_electric ship" speed="13.89" length="22.81" shape="1018.39,367.53 1020.86,365.22 1022.87,360.95 1024.43,354.71 1025.54,346.51"/>
    </edge>
    <edge id=":3870649402_9" function="internal">
        <lane id=":3870649402_9_0" index="0" disallow="tram rail_urban rail rail_electric ship" speed="13.89" length="23.30" shape="1018.39,367.53 1022.15,364.34 1026.17,359.12 1029.67,353.42 1031.85,348.82"/>
    </edge>
    <edge id=":3870649402_10" function="internal">
        <lane id=":3870649402_10_0" index="0" disallow="tram rail_urban rail rail_electric ship" speed="13.89" length="13.38" shape="1018.39,367.53 1022.17,366.26 1024.83,366.74 1026.35,368.96 1026.74,372.94"/>
    </edge>
    <edge id=":3870649402_11" function="internal">
        <lane id=":3870649402_11_0" index="0" disallow="tram rail_urban rail rail_electric ship" speed="13.89" length="4.82" shape="1018.39,367.53 1019.86,367.73 1020.60,368.28 1020.59,369.21 1019.85,370.49"/>
    </edge>
    <edge id=":3870649402_12" function="internal">
        <lane id=":3870649402_12_0" index="0" disallow="tram rail_urban rail rail_electric ship" speed="13.89" length="5.76" shape="1023.45,372.82 1023.28,371.11 1022.62,370.15 1021.48,369.94 1019.85,370.49"/>
    </edge>
    <edge id=":3870649402_13" function="internal">
        <lane id=":3870649402_13_0" index="0" disallow="tram rail_urban rail rail_electric ship" speed="13.89" length="26.39" shape="1023.45,372.82 1025.54,346.51"/>
    </edge>
    <edge id=":3870649402_14" function="internal">
        <lane id=":3870649402_14_0" index="0" disallow="tram rail_urban rail rail_electric ship" speed="13.89" length="8.97" shape="1023.45,372.82 1024.60,367.62 1025.84,364.19"/>
    </edge>
    <edge id=":3870649402_15" function="internal">
        <lane id=":3870649402_15_0" index="0" disallow="tram rail_urban rail rail_electric ship" speed="13.89" length="2.54" shape="1023.45,372.82 1024.31,371.61 1025.15,371.23 1025.27,371.29"/>
    </edge>
    <edge id=":3870649402_18" function="internal">
        <lane id=":3870649402_18_0" index="0" speed="13.89" length="16.51" shape="1025.84,364.19 1027.09,360.71 1029.86,353.86 1031.85,348.82"/>
    </edge>
    <edge id=":3870649402_19" function="internal">
        <lane id=":3870649402_19_0" index="0" speed="13.89" length="2.28" shape="1025.27,371.29 1025.96,371.67 1026.74,372.94"/>
    </edge>
    <edge id=":3870649404_0" function="internal">
        <lane id=":3870649404_0_0" index="0" disallow="tram rail_urban rail rail_electric ship" speed="13.89" length="4.82" shape="1054.17,496.92 1053.34,498.16 1052.52,498.57 1051.69,498.16 1050.87,496.92"/>
    </edge>
    <edge id=":3870649405_0" function="internal">
        <lane id=":3870649405_0_0" index="0" disallow="tram rail_urban rail rail_electric ship" speed="27.78" length="9.73" shape="1132.50,317.19 1142.31,317.90"/>
        <lane id=":3870649405_0_1" index="1" disallow="tram rail_urban rail rail_electric ship" speed="27.78" length="9.73" shape="1132.37,320.48 1141.97,321.18"/>
    </edge>
    <edge id=":3870649405_2" function="internal">
        <lane id=":3870649405_2_0" index="0" disallow="tram rail_urban rail rail_electric ship" speed="20.84" length="8.04" shape="1132.37,320.48 1135.15,320.80 1137.13,321.50 1138.31,322.60 1138.68,324.09"/>
    </edge>
    <edge id=":3870649405_3" function="internal">
        <lane id=":3870649405_3_0" index="0" disallow="tram rail_urban rail rail_electric ship" speed="20.84" length="8.11" shape="1135.39,324.04 1135.82,322.53 1137.06,321.55 1139.11,321.10 1141.97,321.18"/>
    </edge>
    <edge id=":3870649405_4" function="internal">
        <lane id=":3870649405_4_0" index="0" disallow="tram rail_urban rail rail_electric ship" speed="13.89" length="4.82" shape="1135.39,324.04 1136.23,322.81 1137.06,322.41 1137.88,322.84 1138.68,324.09"/>
    </edge>
    <edge id=":3870649409_0" function="internal">
        <lane id=":3870649409_0_0" index="0" disallow="tram rail_urban rail rail_electric ship" speed="13.89" length="9.61" shape="1138.78,446.63 1129.20,445.83"/>
    </edge>
    <edge id=":3870649409_1" function="internal">
        <lane id=":3870649409_1_0" index="0" disallow="tram rail_urban rail rail_electric ship" speed="13.89" length="5.19" shape="1138.78,446.63 1136.12,446.02 1134.23,444.65 1134.17,444.54"/>
    </edge>
    <edge id=":3870649409_2" function="internal">
        <lane id=":3870649409_2_0" index="0" disallow="tram rail_urban rail rail_electric ship" speed="13.89" length="2.41" shape="1138.78,446.63 1137.61,445.71 1137.26,444.86"/>
    </edge>
    <edge id=":3870649409_9" function="internal">
        <lane id=":3870649409_9_0" index="0" speed="13.89" length="5.21" shape="1134.17,444.54 1133.11,442.51 1132.76,439.61"/>
    </edge>
    <edge id=":3870649409_10" function="internal">
        <lane id=":3870649409_10_0" index="0" speed="13.89" length="2.41" shape="1137.26,444.86 1137.73,444.07 1139.02,443.34"/>
    </edge>
    <edge id=":3870649409_3" function="internal">
        <lane id=":3870649409_3_0" index="0" disallow="tram rail_urban rail rail_electric ship" speed="13.89" length="5.32" shape="1136.06,439.64 1136.23,441.18 1136.78,442.30 1137.71,443.02 1139.02,443.34"/>
    </edge>
    <edge id=":3870649409_4" function="internal">
        <lane id=":3870649409_4_0" index="0" disallow="tram rail_urban rail rail_electric ship" speed="13.89" length="10.74" shape="1136.06,439.64 1135.61,442.58 1134.31,444.60 1132.18,445.68 1129.20,445.83"/>
    </edge>
    <edge id=":3870649409_5" function="internal">
        <lane id=":3870649409_5_0" index="0" disallow="tram rail_urban rail rail_electric ship" speed="13.89" length="4.82" shape="1136.06,439.64 1135.23,440.87 1134.40,441.27 1133.58,440.85 1132.76,439.61"/>
    </edge>
    <edge id=":3870649409_6" function="internal">
        <lane id=":3870649409_6_0" index="0" disallow="tram rail_urban rail rail_electric ship" speed="13.89" length="5.10" shape="1129.51,442.55 1130.92,442.47 1131.93,441.96 1132.55,441.00 1132.76,439.61"/>
    </edge>
    <edge id=":3870649409_7" function="internal">
        <lane id=":3870649409_7_0" index="0" disallow="tram rail_urban rail rail_electric ship" speed="13.89" length="9.55" shape="1129.51,442.55 1139.02,443.34"/>
    </edge>
    <edge id=":3870649409_8" function="internal">
        <lane id=":3870649409_8_0" index="0" disallow="tram rail_urban rail rail_electric ship" speed="13.89" length="2.41" shape="1129.51,442.55 1130.66,443.48 1131.00,444.34"/>
    </edge>
    <edge id=":3870649409_11" function="internal">
        <lane id=":3870649409_11_0" index="0" speed="13.89" length="2.41" shape="1131.00,444.34 1130.51,445.12 1129.20,445.83"/>
    </edge>
    <edge id=":3870649410_0" function="internal">