<?xml version="1.0" encoding="UTF-8"?>

<!-- generated on Wednesday 14 March 2018 11:27:28 AM IST by Netedit Version 0.32.0
<?xml version="1.0" encoding="UTF-8"?>

<configuration xmlns:xsi="http://www.w3.org/2001/XMLSchema-instance" xsi:noNamespaceSchemaLocation="http://sumo.dlr.de/xsd/netconvertConfiguration.xsd">

    <input>
        <sumo-net-file value="/home/mtuity/Study/Projects/Traffic_Simulation/multi/lalbagh.net.xml"/>
    </input>

    <output>
        <output-file value="/home/mtuity/Study/Projects/Traffic_Simulation/multi/lalbagh.net.xml"/>
    </output>

    <processing>
        <no-turnarounds value="true"/>
        <offset.disable-normalization value="true"/>
        <lefthand value="false"/>
        <junctions.corner-detail value="0"/>
        <rectangular-lane-cut value="false"/>
        <walkingareas value="false"/>
    </processing>

</configuration>
-->

<net version="0.27" xmlns:xsi="http://www.w3.org/2001/XMLSchema-instance" xsi:noNamespaceSchemaLocation="http://sumo.dlr.de/xsd/net_file.xsd">

    <location netOffset="-779913.92,-1432746.54" convBoundary="0.00,98.19,2467.76,1664.73" origBoundary="77.579042,12.947494,77.621594,12.963843" projParameter="+proj=utm +zone=43 +ellps=WGS84 +datum=WGS84 +units=m +no_defs"/>

    <type id="highway.bridleway" priority="1" numLanes="1" speed="2.78" allow="pedestrian" oneway="1" width="2.00"/>
    <type id="highway.bus_guideway" priority="1" numLanes="1" speed="8.33" allow="bus" oneway="1"/>
    <type id="highway.cycleway" priority="1" numLanes="1" speed="5.56" allow="bicycle" oneway="0" width="1.00"/>
    <type id="highway.footway" priority="1" numLanes="1" speed="2.78" allow="pedestrian" oneway="1" width="2.00"/>
    <type id="highway.ford" priority="1" numLanes="1" speed="2.78" allow="army" oneway="0"/>
    <type id="highway.living_street" priority="3" numLanes="1" speed="2.78" disallow="tram rail_urban rail rail_electric ship" oneway="0"/>
    <type id="highway.motorway" priority="13" numLanes="2" speed="44.44" allow="private emergency authority army vip passenger hov taxi bus coach delivery truck trailer motorcycle evehicle custom1 custom2" oneway="1"/>
    <type id="highway.motorway_link" priority="12" numLanes="1" speed="22.22" allow="private emergency authority army vip passenger hov taxi bus coach delivery truck trailer motorcycle evehicle custom1 custom2" oneway="1"/>
    <type id="highway.path" priority="1" numLanes="1" speed="2.78" allow="bicycle pedestrian" oneway="1" width="2.00"/>
    <type id="highway.pedestrian" priority="1" numLanes="1" speed="2.78" allow="pedestrian" oneway="1" width="2.00"/>
    <type id="highway.primary" priority="9" numLanes="2" speed="27.78" disallow="tram rail_urban rail rail_electric ship" oneway="0"/>
    <type id="highway.primary_link" priority="8" numLanes="1" speed="22.22" disallow="tram rail_urban rail rail_electric ship" oneway="0"/>
    <type id="highway.raceway" priority="14" numLanes="2" speed="83.33" allow="vip" oneway="0"/>
    <type id="highway.residential" priority="4" numLanes="1" speed="13.89" disallow="tram rail_urban rail rail_electric ship" oneway="0"/>
    <type id="highway.secondary" priority="7" numLanes="2" speed="27.78" disallow="tram rail_urban rail rail_electric ship" oneway="0"/>
    <type id="highway.secondary_link" priority="6" numLanes="1" speed="22.22" disallow="tram rail_urban rail rail_electric ship" oneway="0"/>
    <type id="highway.service" priority="2" numLanes="1" speed="5.56" allow="delivery bicycle pedestrian" oneway="0"/>
    <type id="highway.services" priority="1" numLanes="1" speed="8.33" disallow="tram rail_urban rail rail_electric ship" oneway="0"/>
    <type id="highway.stairs" priority="1" numLanes="1" speed="1.39" allow="pedestrian" oneway="1" width="2.00"/>
    <type id="highway.step" priority="1" numLanes="1" speed="1.39" allow="pedestrian" oneway="1" width="2.00"/>
    <type id="highway.steps" priority="1" numLanes="1" speed="1.39" allow="pedestrian" oneway="1" width="2.00"/>
    <type id="highway.tertiary" priority="6" numLanes="1" speed="22.22" disallow="tram rail_urban rail rail_electric ship" oneway="0"/>
    <type id="highway.tertiary_link" priority="5" numLanes="1" speed="22.22" disallow="tram rail_urban rail rail_electric ship" oneway="0"/>
    <type id="highway.track" priority="1" numLanes="1" speed="5.56" disallow="tram rail_urban rail rail_electric ship" oneway="0"/>
    <type id="highway.trunk" priority="11" numLanes="2" speed="27.78" disallow="tram rail_urban rail rail_electric bicycle pedestrian ship" oneway="0"/>
    <type id="highway.trunk_link" priority="10" numLanes="1" speed="22.22" disallow="tram rail_urban rail rail_electric bicycle pedestrian ship" oneway="0"/>
    <type id="highway.unclassified" priority="5" numLanes="1" speed="13.89" disallow="tram rail_urban rail rail_electric ship" oneway="0"/>
    <type id="highway.unsurfaced" priority="1" numLanes="1" speed="8.33" disallow="tram rail_urban rail rail_electric ship" oneway="0"/>
    <type id="railway.light_rail" priority="15" numLanes="1" speed="27.78" allow="rail_urban" oneway="1"/>
    <type id="railway.preserved" priority="15" numLanes="1" speed="27.78" allow="rail" oneway="1"/>
    <type id="railway.rail" priority="15" numLanes="1" speed="83.33" allow="rail rail_electric" oneway="1"/>
    <type id="railway.subway" priority="15" numLanes="1" speed="27.78" allow="rail_urban" oneway="1"/>
    <type id="railway.tram" priority="15" numLanes="1" speed="13.89" allow="tram" oneway="1"/>

    <edge id=":100_0" function="internal">
        <lane id=":100_0_0" index="0" disallow="tram rail_urban rail rail_electric ship" speed="27.78" length="16.10" shape="1244.46,719.77 1238.96,704.64"/>
        <lane id=":100_0_1" index="1" disallow="tram rail_urban rail rail_electric ship" speed="27.78" length="16.10" shape="1247.56,718.64 1242.06,703.51"/>
    </edge>
    <edge id=":100_2" function="internal">
        <lane id=":100_2_0" index="0" disallow="tram rail_urban rail rail_electric ship" speed="27.78" length="10.93" shape="1247.56,718.64 1246.30,714.59 1245.82,711.54 1246.12,709.49 1247.21,708.43"/>
    </edge>
    <edge id=":100_3" function="internal">
        <lane id=":100_3_0" index="0" disallow="tram rail_urban rail rail_electric ship" speed="27.78" length="16.11" shape="1249.54,714.60 1246.58,714.85 1243.83,713.27 1241.29,709.86 1238.96,704.64"/>
    </edge>
    <edge id=":100_4" function="internal">
        <lane id=":100_4_0" index="0" disallow="tram rail_urban rail rail_electric ship" speed="27.78" length="10.93" shape="1248.38,711.52 1246.86,711.44 1245.30,710.08 1243.70,707.44 1242.06,703.51"/>
    </edge>
    <edge id=":100_5" function="internal">
        <lane id=":100_5_0" index="0" disallow="tram rail_urban rail rail_electric ship" speed="27.78" length="4.82" shape="1248.38,711.52 1246.93,711.18 1246.25,710.55 1246.34,709.64 1247.21,708.43"/>
    </edge>
    <edge id=":100_6" function="internal">
        <lane id=":100_6_0" index="0" disallow="tram rail_urban rail rail_electric ship" speed="27.78" length="7.81" shape="1238.14,711.63 1239.32,710.82 1239.84,709.39 1239.72,707.33 1238.96,704.64"/>
    </edge>
    <edge id=":100_7" function="internal">
        <lane id=":100_7_0" index="0" disallow="tram rail_urban rail rail_electric ship" speed="27.78" length="10.34" shape="1238.14,711.63 1240.74,710.23 1242.12,708.56 1243.49,706.85 1246.04,705.34"/>
        <lane id=":100_7_1" index="1" disallow="tram rail_urban rail rail_electric ship" speed="27.78" length="10.34" shape="1239.17,714.76 1241.81,713.35 1243.22,711.67 1244.62,709.96 1247.21,708.43"/>
    </edge>
    <edge id=":1210353360_0" function="internal">
        <lane id=":1210353360_0_0" index="0" disallow="tram rail_urban rail rail_electric ship" speed="13.89" length="4.82" shape="379.25,1423.04 377.76,1423.09 376.95,1422.66 376.80,1421.75 377.33,1420.36"/>
    </edge>
    <edge id=":1276378414_0" function="internal">
        <lane id=":1276378414_0_0" index="0" disallow="tram rail_urban rail rail_electric ship" speed="27.78" length="0.30" shape="553.11,910.58 553.40,910.49"/>
        <lane id=":1276378414_0_1" index="1" disallow="tram rail_urban rail rail_electric ship" speed="27.78" length="0.30" shape="554.16,913.71 554.45,913.62"/>
    </edge>
    <edge id=":1276378434_0" function="internal">
        <lane id=":1276378434_0_0" index="0" disallow="tram rail_urban rail rail_electric ship" speed="27.78" length="0.22" shape="586.32,899.45 586.64,899.36"/>
        <lane id=":1276378434_0_1" index="1" disallow="tram rail_urban rail rail_electric ship" speed="27.78" length="0.22" shape="587.37,902.58 587.47,902.55"/>
    </edge>
    <edge id=":1276378446_0" function="internal">
        <lane id=":1276378446_0_0" index="0" disallow="tram rail_urban rail rail_electric ship" speed="13.89" length="0.43" shape="445.85,1025.60 445.81,1025.48 445.78,1025.40 445.74,1025.32 445.67,1025.21"/>
    </edge>
    <edge id=":1276378446_1" function="internal">
        <lane id=":1276378446_1_0" index="0" disallow="tram rail_urban rail rail_electric ship" speed="13.89" length="2.41" shape="445.85,1025.60 446.26,1024.17 446.92,1023.53"/>
    </edge>
    <edge id=":1276378446_4" function="internal">
        <lane id=":1276378446_4_0" index="0" speed="13.89" length="2.41" shape="446.92,1023.53 447.83,1023.67 449.00,1024.60"/>
    </edge>
    <edge id=":1276378446_2" function="internal">
        <lane id=":1276378446_2_0" index="0" disallow="tram rail_urban rail rail_electric ship" speed="13.89" length="1.32" shape="448.43,1023.41 448.64,1023.74 448.77,1023.98 448.87,1024.22 449.00,1024.60"/>
    </edge>
    <edge id=":1276378446_3" function="internal">
        <lane id=":1276378446_3_0" index="0" disallow="tram rail_urban rail rail_electric ship" speed="13.89" length="2.41" shape="448.43,1023.41 448.42,1024.90 447.95,1025.70"/>
    </edge>
    <edge id=":1276378446_5" function="internal">
        <lane id=":1276378446_5_0" index="0" speed="13.89" length="2.41" shape="447.95,1025.70 447.03,1025.80 445.67,1025.21"/>
    </edge>
    <edge id=":1276378490_0" function="internal">
        <lane id=":1276378490_0_0" index="0" disallow="tram rail_urban rail rail_electric ship" speed="13.89" length="0.30" shape="457.10,1063.80 457.02,1063.51"/>
    </edge>
    <edge id=":1276378490_1" function="internal">
        <lane id=":1276378490_1_0" index="0" disallow="tram rail_urban rail rail_electric ship" speed="13.89" length="2.41" shape="457.10,1063.80 457.52,1062.37 458.19,1061.74"/>
    </edge>
    <edge id=":1276378490_4" function="internal">
        <lane id=":1276378490_4_0" index="0" speed="13.89" length="2.41" shape="458.19,1061.74 459.10,1061.88 460.25,1062.82"/>
    </edge>
    <edge id=":1276378490_2" function="internal">
        <lane id=":1276378490_2_0" index="0" disallow="tram rail_urban rail rail_electric ship" speed="13.89" length="0.20" shape="460.20,1062.63 460.25,1062.82"/>
    </edge>
    <edge id=":1276378490_3" function="internal">
        <lane id=":1276378490_3_0" index="0" disallow="tram rail_urban rail rail_electric ship" speed="13.89" length="2.41" shape="460.20,1062.63 459.73,1064.04 459.05,1064.66"/>
    </edge>
    <edge id=":1276378490_5" function="internal">
        <lane id=":1276378490_5_0" index="0" speed="13.89" length="2.41" shape="459.05,1064.66 458.14,1064.48 457.02,1063.51"/>
    </edge>
    <edge id=":1276378507_0" function="internal">
        <lane id=":1276378507_0_0" index="0" disallow="tram rail_urban rail rail_electric ship" speed="13.89" length="0.30" shape="453.85,1052.12 453.77,1051.82"/>
    </edge>
    <edge id=":1276378507_1" function="internal">
        <lane id=":1276378507_1_0" index="0" disallow="tram rail_urban rail rail_electric ship" speed="13.89" length="2.41" shape="453.85,1052.12 454.31,1050.70 455.00,1050.08"/>
    </edge>
    <edge id=":1276378507_4" function="internal">
        <lane id=":1276378507_4_0" index="0" speed="13.89" length="2.41" shape="455.00,1050.08 455.90,1050.26 457.03,1051.23"/>
    </edge>
    <edge id=":1276378507_2" function="internal">
        <lane id=":1276378507_2_0" index="0" disallow="tram rail_urban rail rail_electric ship" speed="13.89" length="0.30" shape="456.95,1050.95 457.03,1051.23"/>
    </edge>
    <edge id=":1276378507_3" function="internal">
        <lane id=":1276378507_3_0" index="0" disallow="tram rail_urban rail rail_electric ship" speed="13.89" length="2.41" shape="456.95,1050.95 456.48,1052.36 455.80,1052.98"/>
    </edge>
    <edge id=":1276378507_5" function="internal">
        <lane id=":1276378507_5_0" index="0" speed="13.89" length="2.41" shape="455.80,1052.98 454.89,1052.80 453.77,1051.82"/>
    </edge>
    <edge id=":1276378540_0" function="internal">
        <lane id=":1276378540_0_0" index="0" disallow="tram rail_urban rail rail_electric ship" speed="13.89" length="0.15" shape="450.88,1041.34 450.83,1041.20"/>
    </edge>
    <edge id=":1276378540_1" function="internal">
        <lane id=":1276378540_1_0" index="0" disallow="tram rail_urban rail rail_electric ship" speed="13.89" length="2.41" shape="450.88,1041.34 451.34,1039.93 452.03,1039.32"/>
    </edge>
    <edge id=":1276378540_4" function="internal">
        <lane id=":1276378540_4_0" index="0" speed="13.89" length="2.41" shape="452.03,1039.32 452.94,1039.49 454.06,1040.47"/>
    </edge>
    <edge id=":1276378540_2" function="internal">
        <lane id=":1276378540_2_0" index="0" disallow="tram rail_urban rail rail_electric ship" speed="13.89" length="0.29" shape="453.98,1040.19 454.06,1040.47"/>
    </edge>
    <edge id=":1276378540_3" function="internal">
        <lane id=":1276378540_3_0" index="0" disallow="tram rail_urban rail rail_electric ship" speed="13.89" length="2.41" shape="453.98,1040.19 453.57,1041.62 452.91,1042.27"/>
    </edge>
    <edge id=":1276378540_5" function="internal">
        <lane id=":1276378540_5_0" index="0" speed="13.89" length="2.41" shape="452.91,1042.27 452.00,1042.13 450.83,1041.20"/>
    </edge>
    <edge id=":1276378544_0" function="internal">
        <lane id=":1276378544_0_0" index="0" disallow="tram rail_urban rail rail_electric ship" speed="27.78" length="0.10" shape="613.47,857.47 613.49,857.56"/>
        <lane id=":1276378544_0_1" index="1" disallow="tram rail_urban rail rail_electric ship" speed="27.78" length="0.10" shape="616.69,856.79 616.67,856.70"/>
    </edge>
    <edge id=":1559350757_0" function="internal">
        <lane id=":1559350757_0_0" index="0" allow="delivery bicycle pedestrian" speed="5.56" length="4.82" shape="1067.66,270.80 1067.99,269.35 1068.62,268.68 1069.54,268.77 1070.74,269.64"/>
    </edge>
    <edge id=":1559350758_0" function="internal">
        <lane id=":1559350758_0_0" index="0" disallow="tram rail_urban rail rail_electric ship" speed="27.78" length="8.57" shape="1148.22,439.32 1145.85,439.25 1144.23,439.39 1142.63,439.77 1140.35,440.44"/>
        <lane id=":1559350758_0_1" index="1" disallow="tram rail_urban rail rail_electric ship" speed="27.78" length="8.57" shape="1148.40,436.03 1145.70,435.94 1143.85,436.09 1142.03,436.51 1139.43,437.27"/>
    </edge>
    <edge id=":1559350758_2" function="internal">
        <lane id=":1559350758_2_0" index="0" allow="delivery bicycle pedestrian" speed="16.67" length="7.78" shape="1148.40,436.03 1145.66,435.74 1143.59,435.20 1142.18,434.41 1141.44,433.37"/>
    </edge>
    <edge id=":1559350758_3" function="internal">
        <lane id=":1559350758_3_0" index="0" disallow="tram rail_urban rail rail_electric ship" speed="16.67" length="8.01" shape="1144.55,432.27 1144.65,433.78 1143.84,435.11 1142.09,436.28 1139.43,437.27"/>
    </edge>
    <edge id=":1559350758_4" function="internal">
        <lane id=":1559350758_4_0" index="0" allow="delivery bicycle pedestrian" speed="5.56" length="4.82" shape="1144.55,432.27 1144.19,433.71 1143.54,434.37 1142.63,434.26 1141.44,433.37"/>
    </edge>
    <edge id=":1559350759_0" function="internal">
        <lane id=":1559350759_0_0" index="0" disallow="tram rail_urban rail rail_electric ship" speed="27.78" length="6.20" shape="1137.28,442.34 1135.93,443.32 1135.06,444.08 1134.32,444.96 1133.36,446.32"/>
        <lane id=":1559350759_0_1" index="1" disallow="tram rail_urban rail rail_electric ship" speed="27.78" length="6.20" shape="1135.37,439.65 1133.75,440.83 1132.70,441.73 1131.81,442.79 1130.65,444.43"/>
    </edge>
    <edge id=":1559350759_2" function="internal">
        <lane id=":1559350759_2_0" index="0" allow="delivery bicycle pedestrian" speed="16.67" length="6.58" shape="1135.37,439.65 1133.73,440.47 1132.35,440.45 1131.21,439.58 1130.33,437.86"/>
    </edge>
    <edge id=":1559350759_3" function="internal">
        <lane id=":1559350759_3_0" index="0" disallow="tram rail_urban rail rail_electric ship" speed="16.67" length="8.39" shape="1133.44,436.76 1133.59,438.15 1133.17,439.89 1132.19,441.99 1130.65,444.43"/>
    </edge>
    <edge id=":1559350759_4" function="internal">
        <lane id=":1559350759_4_0" index="0" allow="delivery bicycle pedestrian" speed="5.56" length="4.82" shape="1133.44,436.76 1133.07,438.20 1132.43,438.86 1131.52,438.75 1130.33,437.86"/>
    </edge>
    <edge id=":1599997460_0" function="internal">
        <lane id=":1599997460_0_0" index="0" disallow="tram rail_urban rail rail_electric ship" speed="13.89" length="9.07" shape="544.82,1333.23 542.27,1334.11 540.54,1334.75 538.84,1335.45 536.39,1336.56"/>
    </edge>
    <edge id=":1599997460_1" function="internal">
        <lane id=":1599997460_1_0" index="0" disallow="tram rail_urban rail rail_electric ship" speed="13.89" length="5.28" shape="544.82,1333.23 541.96,1333.78 539.65,1333.26"/>
    </edge>
    <edge id=":1599997460_2" function="internal">
        <lane id=":1599997460_2_0" index="0" disallow="tram rail_urban rail rail_electric ship" speed="13.89" length="2.41" shape="544.82,1333.23 543.38,1332.86 542.72,1332.21"/>
    </edge>
    <edge id=":1599997460_9" function="internal">
        <lane id=":1599997460_9_0" index="0" speed="13.89" length="5.28" shape="539.65,1333.26 537.89,1331.67 536.68,1329.02"/>
    </edge>
    <edge id=":1599997460_10" function="internal">
        <lane id=":1599997460_10_0" index="0" speed="13.89" length="2.41" shape="542.72,1332.21 542.84,1331.30 543.75,1330.11"/>
    </edge>
    <edge id=":1599997460_3" function="internal">
        <lane id=":1599997460_3_0" index="0" disallow="tram rail_urban rail rail_electric ship" speed="13.89" length="5.06" shape="539.85,1328.10 540.43,1329.37 541.27,1330.13 542.38,1330.37 543.75,1330.11"/>
    </edge>
    <edge id=":1599997460_4" function="internal">
        <lane id=":1599997460_4_0" index="0" disallow="tram rail_urban rail rail_electric ship" speed="13.89" length="10.12" shape="539.85,1328.10 540.30,1330.91 539.87,1333.25 538.57,1335.14 536.39,1336.56"/>
    </edge>
    <edge id=":1599997460_5" function="internal">
        <lane id=":1599997460_5_0" index="0" disallow="tram rail_urban rail rail_electric ship" speed="13.89" length="4.82" shape="539.85,1328.10 539.41,1329.51 538.73,1330.14 537.82,1329.98 536.68,1329.02"/>
    </edge>
    <edge id=":1599997460_6" function="internal">
        <lane id=":1599997460_6_0" index="0" disallow="tram rail_urban rail rail_electric ship" speed="13.89" length="5.34" shape="535.03,1333.55 536.12,1332.82 536.75,1331.82 536.94,1330.55 536.68,1329.02"/>
    </edge>
    <edge id=":1599997460_7" function="internal">
        <lane id=":1599997460_7_0" index="0" disallow="tram rail_urban rail rail_electric ship" speed="13.89" length="9.38" shape="535.03,1333.55 537.57,1332.41 539.32,1331.68 541.11,1331.02 543.75,1330.11"/>
    </edge>
    <edge id=":1599997460_8" function="internal">
        <lane id=":1599997460_8_0" index="0" disallow="tram rail_urban rail rail_electric ship" speed="13.89" length="2.41" shape="535.03,1333.55 536.49,1333.79 537.21,1334.37"/>
    </edge>
    <edge id=":1599997460_11" function="internal">
        <lane id=":1599997460_11_0" index="0" speed="13.89" length="2.41" shape="537.21,1334.37 537.17,1335.29 536.39,1336.56"/>
    </edge>
    <edge id=":1836940297_0" function="internal">
        <lane id=":1836940297_0_0" index="0" disallow="tram rail_urban rail rail_electric ship" speed="20.84" length="5.05" shape="376.66,792.22 376.29,790.88 375.58,789.99 374.53,789.57 373.14,789.60"/>
    </edge>
    <edge id=":1836940297_1" function="internal">
        <lane id=":1836940297_1_0" index="0" disallow="tram rail_urban rail rail_electric ship" speed="13.89" length="4.82" shape="376.66,792.22 377.32,790.88 378.09,790.37 378.96,790.68 379.93,791.80"/>
    </edge>
    <edge id=":1836940297_2" function="internal">
        <lane id=":1836940297_2_0" index="0" disallow="tram rail_urban rail rail_electric ship" speed="20.84" length="5.37" shape="382.17,787.44 381.03,788.04 380.27,788.97 379.91,790.22 379.93,791.80"/>
    </edge>
    <edge id=":1836940297_3" function="internal">
        <lane id=":1836940297_3_0" index="0" disallow="tram rail_urban rail rail_electric ship" speed="27.78" length="9.06" shape="382.17,787.44 379.54,788.28 377.72,788.77 375.86,789.14 373.14,789.60"/>
        <lane id=":1836940297_3_1" index="1" disallow="tram rail_urban rail rail_electric ship" speed="27.78" length="9.06" shape="381.15,784.30 378.66,785.09 376.93,785.56 375.18,785.91 372.60,786.34"/>
    </edge>
    <edge id=":1859880534_0" function="internal">
        <lane id=":1859880534_0_0" index="0" disallow="tram rail_urban rail rail_electric ship" speed="27.78" length="0.10" shape="1081.70,762.82 1081.70,762.82"/>
        <lane id=":1859880534_0_1" index="1" disallow="tram rail_urban rail rail_electric ship" speed="27.78" length="0.10" shape="1082.72,765.96 1082.72,765.96"/>
    </edge>
    <edge id=":1859880535_0" function="internal">
        <lane id=":1859880535_0_0" index="0" disallow="tram rail_urban rail rail_electric ship" speed="27.78" length="0.30" shape="1039.56,776.51 1039.84,776.41"/>
        <lane id=":1859880535_0_1" index="1" disallow="tram rail_urban rail rail_electric ship" speed="27.78" length="0.30" shape="1040.58,779.65 1040.86,779.55"/>
    </edge>
    <edge id=":1859880536_0" function="internal">
        <lane id=":1859880536_0_0" index="0" disallow="tram rail_urban rail rail_electric ship" speed="27.78" length="0.30" shape="994.67,791.07 994.95,790.97"/>
        <lane id=":1859880536_0_1" index="1" disallow="tram rail_urban rail rail_electric ship" speed="27.78" length="0.30" shape="995.69,794.21 995.97,794.11"/>
    </edge>
    <edge id=":1859880537_0" function="internal">
        <lane id=":1859880537_0_0" index="0" disallow="tram rail_urban rail rail_electric ship" speed="27.78" length="0.25" shape="949.82,805.62 949.99,805.57"/>
        <lane id=":1859880537_0_1" index="1" disallow="tram rail_urban rail rail_electric ship" speed="27.78" length="0.25" shape="950.70,808.80 951.01,808.71"/>
    </edge>
    <edge id=":1859880538_0" function="internal">
        <lane id=":1859880538_0_0" index="0" disallow="tram rail_urban rail rail_electric ship" speed="27.78" length="0.29" shape="905.38,818.01 905.68,817.92"/>
        <lane id=":1859880538_0_1" index="1" disallow="tram rail_urban rail rail_electric ship" speed="27.78" length="0.29" shape="906.30,821.18 906.56,821.10"/>
    </edge>
    <edge id=":1859880539_0" function="internal">
        <lane id=":1859880539_0_0" index="0" disallow="tram rail_urban rail rail_electric ship" speed="27.78" length="0.25" shape="855.83,832.43 856.00,832.38"/>
        <lane id=":1859880539_0_1" index="1" disallow="tram rail_urban rail rail_electric ship" speed="27.78" length="0.25" shape="856.62,835.63 856.92,835.55"/>
    </edge>
    <edge id=":1859880541_0" function="internal">
        <lane id=":1859880541_0_0" index="0" disallow="tram rail_urban rail rail_electric ship" speed="27.78" length="0.10" shape="795.89,847.22 795.89,847.22"/>
        <lane id=":1859880541_0_1" index="1" disallow="tram rail_urban rail rail_electric ship" speed="27.78" length="0.10" shape="796.69,850.42 796.69,850.42"/>
    </edge>
    <edge id=":1859880543_0" function="internal">
        <lane id=":1859880543_0_0" index="0" disallow="tram rail_urban rail rail_electric ship" speed="27.78" length="0.30" shape="758.32,856.49 758.61,856.42"/>
        <lane id=":1859880543_0_1" index="1" disallow="tram rail_urban rail rail_electric ship" speed="27.78" length="0.30" shape="759.11,859.70 759.40,859.63"/>
    </edge>
    <edge id=":1859880544_0" function="internal">
        <lane id=":1859880544_0_0" index="0" disallow="tram rail_urban rail rail_electric ship" speed="27.78" length="0.10" shape="719.59,866.04 719.60,866.04"/>
        <lane id=":1859880544_0_1" index="1" disallow="tram rail_urban rail rail_electric ship" speed="27.78" length="0.10" shape="720.39,869.24 720.38,869.24"/>
    </edge>
    <edge id=":1859880597_0" function="internal">
        <lane id=":1859880597_0_0" index="0" disallow="tram rail_urban rail rail_electric ship" speed="27.78" length="0.10" shape="660.34,1062.86 660.34,1062.86"/>
        <lane id=":1859880597_0_1" index="1" disallow="tram rail_urban rail rail_electric ship" speed="27.78" length="0.10" shape="663.56,1062.12 663.56,1062.12"/>
    </edge>
    <edge id=":200_0" function="internal">
        <lane id=":200_0_0" index="0" disallow="tram rail_urban rail rail_electric ship" speed="20.84" length="6.28" shape="1336.76,967.44 1335.88,965.68 1334.90,965.03 1333.81,965.48 1332.61,967.03"/>
    </edge>
    <edge id=":200_1" function="internal">
        <lane id=":200_1_0" index="0" disallow="tram rail_urban rail rail_electric ship" speed="27.78" length="14.13" shape="1336.76,967.44 1331.91,954.20"/>
        <lane id=":200_1_1" index="1" disallow="tram rail_urban rail rail_electric ship" speed="27.78" length="14.13" shape="1339.87,966.33 1335.00,953.03"/>
    </edge>
    <edge id=":200_3" function="internal">
        <lane id=":200_3_0" index="0" disallow="tram rail_urban rail rail_electric ship" speed="20.84" length="12.62" shape="1339.87,966.33 1338.49,961.84 1337.91,958.33 1338.14,955.82 1339.18,954.29"/>
    </edge>
    <edge id=":200_4" function="internal">
        <lane id=":200_4_0" index="0" disallow="tram rail_urban rail rail_electric ship" speed="13.89" length="13.29" shape="1341.11,956.96 1338.43,959.17 1336.30,961.48 1334.45,964.06 1332.61,967.03"/>
    </edge>
    <edge id=":200_5" function="internal">
        <lane id=":200_5_0" index="0" disallow="tram rail_urban rail rail_electric ship" speed="20.84" length="3.29" shape="1341.11,956.96 1339.37,957.70 1338.01,957.35"/>
    </edge>
    <edge id=":200_6" function="internal">
        <lane id=":200_6_0" index="0" disallow="tram rail_urban rail rail_electric ship" speed="13.89" length="2.41" shape="1341.11,956.96 1339.62,957.02 1338.81,956.59"/>
    </edge>
    <edge id=":200_10" function="internal">
        <lane id=":200_10_0" index="0" speed="20.84" length="5.38" shape="1338.01,957.35 1337.77,957.29 1336.31,955.73 1335.00,953.03"/>
    </edge>
    <edge id=":200_11" function="internal">
        <lane id=":200_11_0" index="0" speed="13.89" length="2.41" shape="1338.81,956.59 1338.66,955.68 1339.18,954.29"/>
    </edge>
    <edge id=":200_7" function="internal">
        <lane id=":200_7_0" index="0" disallow="tram rail_urban rail rail_electric ship" speed="20.84" length="11.72" shape="1329.77,965.34 1331.37,962.20 1332.25,959.30 1332.44,956.63 1331.91,954.20"/>
    </edge>
    <edge id=":200_8" function="internal">
        <lane id=":200_8_0" index="0" disallow="tram rail_urban rail rail_electric ship" speed="13.89" length="14.62" shape="1329.77,965.34 1331.75,962.21 1333.92,959.30 1336.36,956.64 1339.18,954.29"/>
    </edge>
    <edge id=":200_9" function="internal">
        <lane id=":200_9_0" index="0" disallow="tram rail_urban rail rail_electric ship" speed="13.89" length="2.41" shape="1329.77,965.34 1331.12,964.70 1332.04,964.77"/>
    </edge>
    <edge id=":200_12" function="internal">
        <lane id=":200_12_0" index="0" speed="13.89" length="2.41" shape="1332.04,964.77 1332.53,965.55 1332.61,967.03"/>
    </edge>
    <edge id=":2177302381_0" function="internal">
        <lane id=":2177302381_0_0" index="0" disallow="tram rail_urban rail rail_electric ship" speed="27.78" length="0.97" shape="1163.45,455.06 1163.44,454.91 1163.43,454.82 1163.41,454.72 1163.36,454.59"/>
        <lane id=":2177302381_0_1" index="1" disallow="tram rail_urban rail rail_electric ship" speed="27.78" length="0.97" shape="1166.74,454.96 1166.73,454.52 1166.69,454.23 1166.62,453.94 1166.49,453.53"/>
    </edge>
    <edge id=":2227865126_0" function="internal">
        <lane id=":2227865126_0_0" index="0" disallow="tram rail_urban rail rail_electric ship" speed="27.78" length="0.30" shape="1202.24,431.93 1201.97,432.03"/>
        <lane id=":2227865126_0_1" index="1" disallow="tram rail_urban rail rail_electric ship" speed="27.78" length="0.30" shape="1201.10,428.83 1200.81,428.94"/>
    </edge>
    <edge id=":2227865145_0" function="internal">
        <lane id=":2227865145_0_0" index="0" disallow="tram rail_urban rail rail_electric ship" speed="27.78" length="0.10" shape="1565.85,520.08 1565.85,520.08"/>
        <lane id=":2227865145_0_1" index="1" disallow="tram rail_urban rail rail_electric ship" speed="27.78" length="0.10" shape="1563.64,517.63 1563.64,517.63"/>
    </edge>
    <edge id=":2227865145_2" function="internal">
        <lane id=":2227865145_2_0" index="0" disallow="tram rail_urban rail rail_electric ship" speed="27.78" length="2.41" shape="1563.64,517.63 1562.17,517.84 1561.31,517.50"/>
    </edge>
    <edge id=":2227865145_6" function="internal">
        <lane id=":2227865145_6_0" index="0" speed="27.78" length="2.41" shape="1561.31,517.50 1561.07,516.61 1561.44,515.17"/>
    </edge>
    <edge id=":2227865145_3" function="internal">