<routes>
        <vType id="car" accel="0.8" decel="4.5" sigma="0.5" length="5" minGap="2.5" maxSpeed="16.67" guiShape="passenger"/>
        <vType id="bike" length="1.8" width="0.8" maxSpeed="20" accel="0.8" decel="1.5" sigma="0.5" speedDev="0.5" vClass="bicycle"/>
        <vType id="bus" accel="0.5" decel="4.5" sigma="0.5" length="7" minGap="5" maxSpeed="10" guiShape="bus"/>

        <route id="right" edges="1o 2i" />
        <route id="left" edges="2o 1i" />
        <route id="down" edges="54o 4i 3o 53i" />
        <route id="up" edges="53o 3i 4o 54i" />
    <vehicle id="car_left_0" type="car" route="left" depart="0" />
    <vehicle id="bike_left_1" type="bike" route="left" depart="0" />
    <vehicle id="bus_left_2" type="bus" route="left" depart="0" color="1,0,0"/>
    <vehicle id="car_left_3" type="car" route="left" depart="2" />
    <vehicle id="bike_left_4" type="bike" route="left" depart="2" />
    <vehicle id="bus_left_5" type="bus" route="left" depart="2" color="1,0,0"/>
    <vehicle id="car_right_6" type="car" route="right" depart="3" />
    <vehicle id="bike_right_7" type="bike" route="right" depart="3" />
    <vehicle id="bus_right_8" type="bus" route="right" depart="3" color="1,0,0"/>
    <vehicle id="car_up_9" type="car" route="up" depart="4" />
    <vehicle id="bike_up_10" type="bike" route="up" depart="4" />
    <vehicle id="bus_up_11" type="bus" route="up" depart="4" color="1,0,0"/>
    <vehicle id="car_left_12" type="car" route="left" depart="10" />
    <vehicle id="bike_left_13" type="bike" route="left" depart="10" />
    <vehicle id="bus_left_14" type="bus" route="left" depart="10" color="1,0,0"/>
    <vehicle id="car_right_15" type="car" route="right" depart="11" />
    <vehicle id="bike_right_16" type="bike" route="right" depart="11" />
    <vehicle id="bus_right_17" type="bus" route="right" depart="11" color="1,0,0"/>
    <vehicle id="car_up_18" type="car" route="up" depart="16" />
    <vehicle id="bike_up_19" type="bike" route="up" depart="16" />
    <vehicle id="bus_up_20" type="bus" route="up" depart="16" color="1,0,0"/>
    <vehicle id="car_right_21" type="car" route="right" depart="22" />
    <vehicle id="bike_right_22" type="bike" route="right" depart="22" />
    <vehicle id="bus_right_23" type="bus" route="right" depart="22" color="1,0,0"/>
    <vehicle id="car_left_24" type="car" route="left" depart="22" />
    <vehicle id="bike_left_25" type="bike" route="left" depart="22" />
    <vehicle id="bus_left_26" type="bus" route="left" depart="22" color="1,0,0"/>
    <vehicle id="car_right_27" type="car" route="right" depart="25" />
    <vehicle id="bike_right_28" type="bike" route="right" depart="25" />
    <vehicle id="bus_right_29" type="bus" route="right" depart="25" color="1,0,0"/>
    <vehicle id="car_right_30" type="car" route="right" depart="31" />
    <vehicle id="bike_right_31" type="bike" route="right" depart="31" />
    <vehicle id="bus_right_32" type="bus" route="right" depart="31" color="1,0,0"/>
    <vehicle id="car_down_33" type="car" route="down" depart="31" />
    <vehicle id="bike_down_34" type="bike" route="down" depart="31" />
    <vehicle id="bus_down_35" type="bus" route="down" depart="31" color="1,0,0"/>
    <vehicle id="car_right_36" type="car" route="right" depart="34" />
    <vehicle id="bike_right_37" type="bike" route="right" depart="34" />
    <vehicle id="bus_right_38" type="bus" route="right" depart="34" color="1,0,0"/>
    <vehicle id="car_right_39" type="car" route="right" depart="40" />
    <vehicle id="bike_right_40" type="bike" route="right" depart="40" />
    <vehicle id="bus_right_41" type="bus" route="right" depart="40" color="1,0,0"/>
    <vehicle id="car_left_42" type="car" route="left" depart="41" />
    <vehicle id="bike_left_43" type="bike" route="left" depart="41" />
    <vehicle id="bus_left_44" type="bus" route="left" depart="41" color="1,0,0"/>
    <vehicle id="car_right_45" type="car" route="right" depart="44" />
    <vehicle id="bike_right_46" type="bike" route="right" depart="44" />
    <vehicle id="bus_right_47" type="bus" route="right" depart="44" color="1,0,0"/>
    <vehicle id="car_left_48" type="car" route="left" depart="49" />
    <vehicle id="bike_left_49" type="bike" route="left" depart="49" />
    <vehicle id="bus_left_50" type="bus" route="left" depart="49" color="1,0,0"/>
    <vehicle id="car_right_51" type="car" route="right" depart="56" />
    <vehicle id="bike_right_52" type="bike" route="right" depart="56" />
    <vehicle id="bus_right_53" type="bus" route="right" depart="56" color="1,0,0"/>
    <vehicle id="car_right_54" type="car" route="right" depart="63" />
    <vehicle id="bike_right_55" type="bike" route="right" depart="63" />
    <vehicle id="bus_right_56" type="bus" route="right" depart="63" color="1,0,0"/>
    <vehicle id="car_right_57" type="car" route="right" depart="64" />
    <vehicle id="bike_right_58" type="bike" route="right" depart="64" />
    <vehicle id="bus_right_59" type="bus" route="right" depart="64" color="1,0,0"/>
    <vehicle id="car_left_60" type="car" route="left" depart="67" />
    <vehicle id="bike_left_61" type="bike" route="left" depart="67" />
    <vehicle id="bus_left_62" type="bus" route="left" depart="67" color="1,0,0"/>
    <vehicle id="car_down_63" type="car" route="down" depart="72" />
    <vehicle id="bike_down_64" type="bike" route="down" depart="72" />
    <vehicle id="bus_down_65" type="bus" route="down" depart="72" color="1,0,0"/>
    <vehicle id="car_left_66" type="car" route="left" depart="74" />
    <vehicle id="bike_left_67" type="bike" route="left" depart="74" />
    <vehicle id="bus_left_68" type="bus" route="left" depart="74" color="1,0,0"/>
    <vehicle id="car_right_69" type="car" route="right" depart="81" />
    <vehicle id="bike_right_70" type="bike" route="right" depart="81" />
    <vehicle id="bus_right_71" type="bus" route="right" depart="81" color="1,0,0"/>
    <vehicle id="car_down_72" type="car" route="down" depart="85" />
    <vehicle id="bike_down_73" type="bike" route="down" depart="85" />
    <vehicle id="bus_down_74" type="bus" route="down" depart="85" color="1,0,0"/>
    <vehicle id="car_right_75" type="car" route="right" depart="92" />
    <vehicle id="bike_right_76" type="bike" route="right" depart="92" />
    <vehicle id="bus_right_77" type="bus" route="right" depart="92" color="1,0,0"/>
    <vehicle id="car_down_78" type="car" route="down" depart="98" />
    <vehicle id="bike_down_79" type="bike" route="down" depart="98" />
    <vehicle id="bus_down_80" type="bus" route="down" depart="98" color="1,0,0"/>
    <vehicle id="car_up_81" type="car" route="up" depart="103" />
    <vehicle id="bike_up_82" type="bike" route="up" depart="103" />
    <vehicle id="bus_up_83" type="bus" route="up" depart="103" color="1,0,0"/>
    <vehicle id="car_up_84" type="car" route="up" depart="106" />
    <vehicle id="bike_up_85" type="bike" route="up" depart="106" />
    <vehicle id="bus_up_86" type="bus" route="up" depart="106" color="1,0,0"/>
    <vehicle id="car_right_87" type="car" route="right" depart="115" />
    <vehicle id="bike_right_88" type="bike" route="right" depart="115" />
    <vehicle id="bus_right_89" type="bus" route="right" depart="115" color="1,0,0"/>
    <vehicle id="car_left_90" type="car" route="left" depart="117" />
    <vehicle id="bike_left_91" type="bike" route="left" depart="117" />
    <vehicle id="bus_left_92" type="bus" route="left" depart="117" color="1,0,0"/>
    <vehicle id="car_left_93" type="car" route="left" depart="120" />
    <vehicle id="bike_left_94" type="bike" route="left" depart="120" />
    <vehicle id="bus_left_95" type="bus" route="left" depart="120" color="1,0,0"/>
    <vehicle id="car_left_96" type="car" route="left" depart="123" />
    <vehicle id="bike_left_97" type="bike" route="left" depart="123" />
    <vehicle id="bus_left_98" type="bus" route="left" depart="123" color="1,0,0"/>
    <vehicle id="car_left_99" type="car" route="left" depart="125" />
    <vehicle id="bike_left_100" type="bike" route="left" depart="125" />
    <vehicle id="bus_left_101" type="bus" route="left" depart="125" color="1,0,0"/>
    <vehicle id="car_right_102" type="car" route="right" depart="126" />
    <vehicle id="bike_right_103" type="bike" route="right" depart="126" />
    <vehicle id="bus_right_104" type="bus" route="right" depart="126" color="1,0,0"/>
    <vehicle id="car_right_105" type="car" route="right" depart="127" />
    <vehicle id="bike_right_106" type="bike" route="right" depart="127" />
    <vehicle id="bus_right_107" type="bus" route="right" depart="127" color="1,0,0"/>
    <vehicle id="car_left_108" type="car" route="left" depart="129" />
    <vehicle id="bike_left_109" type="bike" route="left" depart="129" />
    <vehicle id="bus_left_110" type="bus" route="left" depart="129" color="1,0,0"/>
    <vehicle id="car_down_111" type="car" route="down" depart="129" />
    <vehicle id="bike_down_112" type="bike" route="down" depart="129" />
    <vehicle id="bus_down_113" type="bus" route="down" depart="129" color="1,0,0"/>
    <vehicle id="car_right_114" type="car" route="right" depart="132" />
    <vehicle id="bike_right_115" type="bike" route="right" depart="132" />
    <vehicle id="bus_right_116" type="bus" route="right" depart="132" color="1,0,0"/>
    <vehicle id="car_up_117" type="car" route="up" depart="135" />
    <vehicle id="bike_up_118" type="bike" route="up" depart="135" />
    <vehicle id="bus_up_119" type="bus" route="up" depart="135" color="1,0,0"/>
    <vehicle id="car_left_120" type="car" route="left" depart="137" />
    <vehicle id="bike_left_121" type="bike" route="left" depart="137" />
    <vehicle id="bus_left_122" type="bus" route="left" depart="137" color="1,0,0"/>
    <vehicle id="car_left_123" type="car" route="left" depart="147" />
    <vehicle id="bike_left_124" type="bike" route="left" depart="147" />
    <vehicle id="bus_left_125" type="bus" route="left" depart="147" color="1,0,0"/>
    <vehicle id="car_down_126" type="car" route="down" depart="149" />
    <vehicle id="bike_down_127" type="bike" route="down" depart="149" />
    <vehicle id="bus_down_128" type="bus" route="down" depart="149" color="1,0,0"/>
    <vehicle id="car_right_129" type="car" route="right" depart="150" />
    <vehicle id="bike_right_130" type="bike" route="right" depart="150" />
    <vehicle id="bus_right_131" type="bus" route="right" depart="150" color="1,0,0"/>
    <vehicle id="car_right_132" type="car" route="right" depart="152" />
    <vehicle id="bike_right_133" type="bike" route="right" depart="152" />
    <vehicle id="bus_right_134" type="bus" route="right" depart="152" color="1,0,0"/>
    <vehicle id="car_left_135" type="car" route="left" depart="159" />
    <vehicle id="bike_left_136" type="bike" route="left" depart="159" />
    <vehicle id="bus_left_137" type="bus" route="left" depart="159" color="1,0,0"/>
    <vehicle id="car_right_138" type="car" route="right" depart="164" />
    <vehicle id="bike_right_139" type="bike" route="right" depart="164" />
    <vehicle id="bus_right_140" type="bus" route="right" depart="164" color="1,0,0"/>
    <vehicle id="car_right_141" type="car" route="right" depart="171" />
    <vehicle id="bike_right_142" type="bike" route="right" depart="171" />
    <vehicle id="bus_right_143" type="bus" route="right" depart="171" color="1,0,0"/>
    <vehicle id="car_right_144" type="car" route="right" depart="179" />
    <vehicle id="bike_right_145" type="bike" route="right" depart="179" />
    <vehicle id="bus_right_146" type="bus" route="right" depart="179" color="1,0,0"/>
    <vehicle id="car_right_147" type="car" route="right" depart="180" />
    <vehicle id="bike_right_148" type="bike" route="right" depart="180" />
    <vehicle id="bus_right_149" type="bus" route="right" depart="180" color="1,0,0"/>
    <vehicle id="car_right_150" type="car" route="right" depart="182" />
    <vehicle id="bike_right_151" type="bike" route="right" depart="182" />
    <vehicle id="bus_right_152" type="bus" route="right" depart="182" color="1,0,0"/>
    <vehicle id="car_left_153" type="car" route="left" depart="204" />
    <vehicle id="bike_left_154" type="bike" route="left" depart="204" />
    <vehicle id="bus_left_155" type="bus" route="left" depart="204" color="1,0,0"/>
    <vehicle id="car_down_156" type="car" route="down" depart="206" />
    <vehicle id="bike_down_157" type="bike" route="down" depart="206" />
    <vehicle id="bus_down_158" type="bus" route="down" depart="206" color="1,0,0"/>
    <vehicle id="car_up_159" type="car" route="up" depart="212" />
    <vehicle id="bike_up_160" type="bike" route="up" depart="212" />
    <vehicle id="bus_up_161" type="bus" route="up" depart="212" color="1,0,0"/>
    <vehicle id="car_right_162" type="car" route="right" depart="213" />
    <vehicle id="bike_right_163" type="bike" route="right" depart="213" />
    <vehicle id="bus_right_164" type="bus" route="right" depart="213" color="1,0,0"/>
    <vehicle id="car_right_165" type="car" route="right" depart="216" />
    <vehicle id="bike_right_166" type="bike" route="right" depart="216" />
    <vehicle id="bus_right_167" type="bus" route="right" depart="216" color="1,0,0"/>
    <vehicle id="car_left_168" type="car" route="left" depart="218" />
    <vehicle id="bike_left_169" type="bike" route="left" depart="218" />
    <vehicle id="bus_left_170" type="bus" route="left" depart="218" color="1,0,0"/>
    <vehicle id="car_down_171" type="car" route="down" depart="220" />
    <vehicle id="bike_down_172" type="bike" route="down" depart="220" />
    <vehicle id="bus_down_173" type="bus" route="down" depart="220" color="1,0,0"/>
    <vehicle id="car_right_174" type="car" route="right" depart="227" />
    <vehicle id="bike_right_175" type="bike" route="right" depart="227" />
    <vehicle id="bus_right_176" type="bus" route="right" depart="227" color="1,0,0"/>
    <vehicle id="car_left_177" type="car" route="left" depart="232" />
    <vehicle id="bike_left_178" type="bike" route="left" depart="232" />
    <vehicle id="bus_left_179" type="bus" route="left" depart="232" color="1,0,0"/>
    <vehicle id="car_right_180" type="car" route="right" depart="239" />
    <vehicle id="bike_right_181" type="bike" route="right" depart="239" />
    <vehicle id="bus_right_182" type="bus" route="right" depart="239" color="1,0,0"/>
    <vehicle id="car_down_183" type="car" route="down" depart="241" />
    <vehicle id="bike_down_184" type="bike" route="down" depart="241" />
    <vehicle id="bus_down_185" type="bus" route="down" depart="241" color="1,0,0"/>
    <vehicle id="car_right_186" type="car" route="right" depart="245" />
    <vehicle id="bike_right_187" type="bike" route="right" depart="245" />
    <vehicle id="bus_right_188" type="bus" route="right" depart="245" color="1,0,0"/>
    <vehicle id="car_up_189" type="car" route="up" depart="248" />
    <vehicle id="bike_up_190" type="bike" route="up" depart="248" />
    <vehicle id="bus_up_191" type="bus" route="up" depart="248" color="1,0,0"/>
    <vehicle id="car_right_192" type="car" route="right" depart="250" />
    <vehicle id="bike_right_193" type="bike" route="right" depart="250" />
    <vehicle id="bus_right_194" type="bus" route="right" depart="250" color="1,0,0"/>
    <vehicle id="car_left_195" type="car" route="left" depart="253" />
    <vehicle id="bike_left_196" type="bike" route="left" depart="253" />
    <vehicle id="bus_left_197" type="bus" route="left" depart="253" color="1,0,0"/>
    <vehicle id="car_down_198" type="car" route="down" depart="256" />
    <vehicle id="bike_down_199" type="bike" route="down" depart="256" />
    <vehicle id="bus_down_200" type="bus" route="down" depart="256" color="1,0,0"/>
    <vehicle id="car_left_201" type="car" route="left" depart="258" />
    <vehicle id="bike_left_202" type="bike" route="left" depart="258" />
    <vehicle id="bus_left_203" type="bus" route="left" depart="258" color="1,0,0"/>
    <vehicle id="car_down_204" type="car" route="down" depart="258" />
    <vehicle id="bike_down_205" type="bike" route="down" depart="258" />
    <vehicle id="bus_down_206" type="bus" route="down" depart="258" color="1,0,0"/>
    <vehicle id="car_left_207" type="car" route="left" depart="262" />
    <vehicle id="bike_left_208" type="bike" route="left" depart="262" />
    <vehicle id="bus_left_209" type="bus" route="left" depart="262" color="1,0,0"/>
    <vehicle id="car_left_210" type="car" route="left" depart="265" />
    <vehicle id="bike_left_211" type="bike" route="left" depart="265" />
    <vehicle id="bus_left_212" type="bus" route="left" depart="265" color="1,0,0"/>
    <vehicle id="car_right_213" type="car" route="right" depart="266" />
    <vehicle id="bike_right_214" type="bike" route="right" depart="266" />
    <vehicle id="bus_right_215" type="bus" route="right" depart="266" color="1,0,0"/>
    <vehicle id="car_left_216" type="car" route="left" depart="281" />
    <vehicle id="bike_left_217" type="bike" route="left" depart="281" />
    <vehicle id="bus_left_218" type="bus" route="left" depart="281" color="1,0,0"/>
    <vehicle id="car_left_219" type="car" route="left" depart="283" />
    <vehicle id="bike_left_220" type="bike" route="left" depart="283" />
    <vehicle id="bus_left_221" type="bus" route="left" depart="283" color="1,0,0"/>
    <vehicle id="car_up_222" type="car" route="up" depart="284" />
    <vehicle id="bike_up_223" type="bike" route="up" depart="284" />
    <vehicle id="bus_up_224" type="bus" route="up" depart="284" color="1,0,0"/>
    <vehicle id="car_right_225" type="car" route="right" depart="287" />
    <vehicle id="bike_right_226" type="bike" route="right" depart="287" />
    <vehicle id="bus_right_227" type="bus" route="right" depart="287" color="1,0,0"/>
    <vehicle id="car_left_228" type="car" route="left" depart="287" />
    <vehicle id="bike_left_229" type="bike" route="left" depart="287" />
    <vehicle id="bus_left_230" type="bus" route="left" depart="287" color="1,0,0"/>
    <vehicle id="car_left_231" type="car" route="left" depart="291" />
    <vehicle id="bike_left_232" type="bike" route="left" depart="291" />
    <vehicle id="bus_left_233" type="bus" route="left" depart="291" color="1,0,0"/>
    <vehicle id="car_right_234" type="car" route="right" depart="292" />
    <vehicle id="bike_right_235" type="bike" route="right" depart="292" />
    <vehicle id="bus_right_236" type="bus" route="right" depart="292" color="1,0,0"/>
    <vehicle id="car_down_237" type="car" route="down" depart="293" />
    <vehicle id="bike_down_238" type="bike" route="down" depart="293" />
    <vehicle id="bus_down_239" type="bus" route="down" depart="293" color="1,0,0"/>
    <vehicle id="car_right_240" type="car" route="right" depart="296" />
    <vehicle id="bike_right_241" type="bike" route="right" depart="296" />
    <vehicle id="bus_right_242" type="bus" route="right" depart="296" color="1,0,0"/>
    <vehicle id="car_left_243" type="car" route="left" depart="296" />
    <vehicle id="bike_left_244" type="bike" route="left" depart="296" />
    <vehicle id="bus_left_245" type="bus" route="left" depart="296" color="1,0,0"/>
    <vehicle id="car_left_246" type="car" route="left" depart="298" />
    <vehicle id="bike_left_247" type="bike" route="left" depart="298" />
    <vehicle id="bus_left_248" type="bus" route="left" depart="298" color="1,0,0"/>
    <vehicle id="car_right_249" type="car" route="right" depart="309" />
    <vehicle id="bike_right_250" type="bike" route="right" depart="309" />
    <vehicle id="bus_right_251" type="bus" route="right" depart="309" color="1,0,0"/>
    <vehicle id="car_right_252" type="car" route="right" depart="310" />
    <vehicle id="bike_right_253" type="bike" route="right" depart="310" />
    <vehicle id="bus_right_254" type="bus" route="right" depart="310" color="1,0,0"/>
    <vehicle id="car_right_255" type="car" route="right" depart="311" />
    <vehicle id="bike_right_256" type="bike" route="right" depart="311" />
    <vehicle id="bus_right_257" type="bus" route="right" depart="311" color="1,0,0"/>
    <vehicle id="car_left_258" type="car" route="left" depart="315" />
    <vehicle id="bike_left_259" type="bike" route="left" depart="315" />
    <vehicle id="bus_left_260" type="bus" route="left" depart="315" color="1,0,0"/>
    <vehicle id="car_right_261" type="car" route="right" depart="320" />
    <vehicle id="bike_right_262" type="bike" route="right" depart="320" />
    <vehicle id="bus_right_263" type="bus" route="right" depart="320" color="1,0,0"/>
    <vehicle id="car_right_264" type="car" route="right" depart="329" />
    <vehicle id="bike_right_265" type="bike" route="right" depart="329" />
    <vehicle id="bus_right_266" type="bus" route="right" depart="329" color="1,0,0"/>
    <vehicle id="car_down_267" type="car" route="down" depart="330" />
    <vehicle id="bike_down_268" type="bike" route="down" depart="330" />
    <vehicle id="bus_down_269" type="bus" route="down" depart="330" color="1,0,0"/>
    <vehicle id="car_left_270" type="car" route="left" depart="343" />
    <vehicle id="bike_left_271" type="bike" route="left" depart="343" />
    <vehicle id="bus_left_272" type="bus" route="left" depart="343" color="1,0,0"/>
    <vehicle id="car_up_273" type="car" route="up" depart="344" />
    <vehicle id="bike_up_274" type="bike" route="up" depart="344" />
    <vehicle id="bus_up_275" type="bus" route="up" depart="344" color="1,0,0"/>
    <vehicle id="car_up_276" type="car" route="up" depart="347" />
    <vehicle id="bike_up_277" type="bike" route="up" depart="347" />
    <vehicle id="bus_up_278" type="bus" route="up" depart="347" color="1,0,0"/>
    <vehicle id="car_right_279" type="car" route="right" depart="348" />
    <vehicle id="bike_right_280" type="bike" route="right" depart="348" />
    <vehicle id="bus_right_281" type="bus" route="right" depart="348" color="1,0,0"/>
    <vehicle id="car_left_282" type="car" route="left" depart="350" />
    <vehicle id="bike_left_283" type="bike" route="left" depart="350" />
    <vehicle id="bus_left_284" type="bus" route="left" depart="350" color="1,0,0"/>
    <vehicle id="car_right_285" type="car" route="right" depart="352" />
    <vehicle id="bike_right_286" type="bike" route="right" depart="352" />
    <vehicle id="bus_right_287" type="bus" route="right" depart="352" color="1,0,0"/>
    <vehicle id="car_left_288" type="car" route="left" depart="354" />
    <vehicle id="bike_left_289" type="bike" route="left" depart="354" />
    <vehicle id="bus_left_290" type="bus" route="left" depart="354" color="1,0,0"/>
    <vehicle id="car_left_291" type="car" route="left" depart="357" />
    <vehicle id="bike_left_292" type="bike" route="left" depart="357" />
    <vehicle id="bus_left_293" type="bus" route="left" depart="357" color="1,0,0"/>
    <vehicle id="car_left_294" type="car" route="left" depart="359" />
    <vehicle id="bike_left_295" type="bike" route="left" depart="359" />
    <vehicle id="bus_left_296" type="bus" route="left" depart="359" color="1,0,0"/>
    <vehicle id="car_down_297" type="car" route="down" depart="362" />
    <vehicle id="bike_down_298" type="bike" route="down" depart="362" />
    <vehicle id="bus_down_299" type="bus" route="down" depart="362" color="1,0,0"/>
    <vehicle id="car_right_300" type="car" route="right" depart="363" />
    <vehicle id="bike_right_301" type="bike" route="right" depart="363" />
    <vehicle id="bus_right_302" type="bus" route="right" depart="363" color="1,0,0"/>
    <vehicle id="car_left_303" type="car" route="left" depart="369" />
    <vehicle id="bike_left_304" type="bike" route="left" depart="369" />
    <vehicle id="bus_left_305" type="bus" route="left" depart="369" color="1,0,0"/>
    <vehicle id="car_left_306" type="car" route="left" depart="372" />
    <vehicle id="bike_left_307" type="bike" route="left" depart="372" />
    <vehicle id="bus_left_308" type="bus" route="left" depart="372" color="1,0,0"/>
    <vehicle id="car_right_309" type="car" route="right" depart="374" />
    <vehicle id="bike_right_310" type="bike" route="right" depart="374" />
    <vehicle id="bus_right_311" type="bus" route="right" depart="374" color="1,0,0"/>
    <vehicle id="car_left_312" type="car" route="left" depart="376" />
    <vehicle id="bike_left_313" type="bike" route="left" depart="376" />
    <vehicle id="bus_left_314" type="bus" route="left" depart="376" color="1,0,0"/>
    <vehicle id="car_right_315" type="car" route="right" depart="389" />
    <vehicle id="bike_right_316" type="bike" route="right" depart="389" />
    <vehicle id="bus_right_317" type="bus" route="right" depart="389" color="1,0,0"/>
    <vehicle id="car_left_318" type="car" route="left" depart="392" />
    <vehicle id="bike_left_319" type="bike" route="left" depart="392" />
    <vehicle id="bus_left_320" type="bus" route="left" depart="392" color="1,0,0"/>
    <vehicle id="car_right_321" type="car" route="right" depart="402" />
    <vehicle id="bike_right_322" type="bike" route="right" depart="402" />
    <vehicle id="bus_right_323" type="bus" route="right" depart="402" color="1,0,0"/>
    <vehicle id="car_left_324" type="car" route="left" depart="402" />
    <vehicle id="bike_left_325" type="bike" route="left" depart="402" />
    <vehicle id="bus_left_326" type="bus" route="left" depart="402" color="1,0,0"/>
    <vehicle id="car_right_327" type="car" route="right" depart="406" />
    <vehicle id="bike_right_328" type="bike" route="right" depart="406" />
    <vehicle id="bus_right_329" type="bus" route="right" depart="406" color="1,0,0"/>
    <vehicle id="car_left_330" type="car" route="left" depart="406" />
    <vehicle id="bike_left_331" type="bike" route="left" depart="406" />
    <vehicle id="bus_left_332" type="bus" route="left" depart="406" color="1,0,0"/>
    <vehicle id="car_left_333" type="car" route="left" depart="414" />
    <vehicle id="bike_left_334" type="bike" route="left" depart="414" />
    <vehicle id="bus_left_335" type="bus" route="left" depart="414" color="1,0,0"/>
    <vehicle id="car_up_336" type="car" route="up" depart="423" />
    <vehicle id="bike_up_337" type="bike" route="up" depart="423" />
    <vehicle id="bus_up_338" type="bus" route="up" depart="423" color="1,0,0"/>
    <vehicle id="car_left_339" type="car" route="left" depart="430" />
    <vehicle id="bike_left_340" type="bike" route="left" depart="430" />
    <vehicle id="bus_left_341" type="bus" route="left" depart="430" color="1,0,0"/>
    <vehicle id="car_up_342" type="car" route="up" depart="433" />
    <vehicle id="bike_up_343" type="bike" route="up" depart="433" />
    <vehicle id="bus_up_344" type="bus" route="up" depart="433" color="1,0,0"/>
    <vehicle id="car_down_345" type="car" route="down" depart="434" />
    <vehicle id="bike_down_346" type="bike" route="down" depart="434" />
    <vehicle id="bus_down_347" type="bus" route="down" depart="434" color="1,0,0"/>
    <vehicle id="car_up_348" type="car" route="up" depart="451" />
    <vehicle id="bike_up_349" type="bike" route="up" depart="451" />
    <vehicle id="bus_up_350" type="bus" route="up" depart="451" color="1,0,0"/>
    <vehicle id="car_right_351" type="car" route="right" depart="459" />
    <vehicle id="bike_right_352" type="bike" route="right" depart="459" />
    <vehicle id="bus_right_353" type="bus" route="right" depart="459" color="1,0,0"/>
    <vehicle id="car_down_354" type="car" route="down" depart="468" />
    <vehicle id="bike_down_355" type="bike" route="down" depart="468" />
    <vehicle id="bus_down_356" type="bus" route="down" depart="468" color="1,0,0"/>
    <vehicle id="car_left_357" type="car" route="left" depart="469" />
    <vehicle id="bike_left_358" type="bike" route="left" depart="469" />
    <vehicle id="bus_left_359" type="bus" route="left" depart="469" color="1,0,0"/>
    <vehicle id="car_right_360" type="car" route="right" depart="477" />
    <vehicle id="bike_right_361" type="bike" route="right" depart="477" />
    <vehicle id="bus_right_362" type="bus" route="right" depart="477" color="1,0,0"/>
    <vehicle id="car_right_363" type="car" route="right" depart="481" />
    <vehicle id="bike_right_364" type="bike" route="right" depart="481" />
    <vehicle id="bus_right_365" type="bus" route="right" depart="481" color="1,0,0"/>
    <vehicle id="car_right_366" type="car" route="right" depart="483" />
    <vehicle id="bike_right_367" type="bike" route="right" depart="483" />
    <vehicle id="bus_right_368" type="bus" route="right" depart="483" color="1,0,0"/>
    <vehicle id="car_left_369" type="car" route="left" depart="484" />
    <vehicle id="bike_left_370" type="bike" route="left" depart="484" />
    <vehicle id="bus_left_371" type="bus" route="left" depart="484" color="1,0,0"/>
    <vehicle id="car_up_372" type="car" route="up" depart="484" />
    <vehicle id="bike_up_373" type="bike" route="up" depart="484" />
    <vehicle id="bus_up_374" type="bus" route="up" depart="484" color="1,0,0"/>
    <vehicle id="car_left_375" type="car" route="left" depart="490" />
    <vehicle id="bike_left_376" type="bike" route="left" depart="490" />
    <vehicle id="bus_left_377" type="bus" route="left" depart="490" color="1,0,0"/>
    <vehicle id="car_down_378" type="car" route="down" depart="490" />
    <vehicle id="bike_down_379" type="bike" route="down" depart="490" />
    <vehicle id="bus_down_380" type="bus" route="down" depart="490" color="1,0,0"/>
    <vehicle id="car_down_381" type="car" route="down" depart="494" />
    <vehicle id="bike_down_382" type="bike" route="down" depart="494" />
    <vehicle id="bus_down_383" type="bus" route="down" depart="494" color="1,0,0"/>
    <vehicle id="car_left_384" type="car" route="left" depart="495" />
    <vehicle id="bike_left_385" type="bike" route="left" depart="495" />
    <vehicle id="bus_left_386" type="bus" route="left" depart="495" color="1,0,0"/>
    <vehicle id="car_right_387" type="car" route="right" depart="496" />