<?xml version="1.0" encoding="UTF-8"?>

<!-- generated on Wed Feb  7 11:15:35 2018 by SUMO polyconvert Version 0.32.0
<?xml version="1.0" encoding="UTF-8"?>

<configuration xmlns:xsi="http://www.w3.org/2001/XMLSchema-instance" xsi:noNamespaceSchemaLocation="http://sumo.dlr.de/xsd/polyconvertConfiguration.xsd">

    <input>
        <net-file value="ijipura.net.xml"/>
        <osm-files value="ijipura.osm"/>
        <type-file value="typemap.xml"/>
    </input>

    <output>
        <output-file value="ijipura.poly.xml"/>
    </output>

    <processing>
        <poi-layer-offset value="5"/>
    </processing>

</configuration>
-->

<additional xmlns:xsi="http://www.w3.org/2001/XMLSchema-instance" xsi:noNamespaceSchemaLocation="http://sumo.dlr.de/xsd/additional_file.xsd">
    <location netOffset="-784421.35,-1431493.61" convBoundary="-404.57,-703.38,4030.81,3469.60" origBoundary="77.617892,12.929232,77.658453,12.967141" projParameter="+proj=utm +zone=43 +ellps=WGS84 +datum=WGS84 +units=m +no_defs"/>

    <poly id="217529684" type="military" color="153,153,92" fill="1" layer="-3.00" shape="-35.17,2311.03 -52.85,2230.29 44.45,2192.40 198.15,2114.63 313.66,2040.99 391.67,1957.99 486.32,1816.35 650.98,1481.91 897.52,1070.52 1115.04,581.96 1236.71,336.87 1241.08,328.07 1365.47,332.84 1442.52,355.66 1522.35,399.35 1584.72,452.37 1644.98,535.15 1886.38,945.43 2017.66,1171.21 2083.99,1303.46 2086.54,1346.35 2074.08,1392.66 2042.61,1423.29 1948.93,1503.28 1916.11,1548.19 1900.62,1598.03 1903.14,1642.70 1962.04,1770.44 1649.63,2152.43 1598.86,2285.25 1417.02,2793.64 1393.67,2848.40 1387.84,2865.73 1377.44,2867.84 1325.94,2862.94 1251.01,2842.14 1186.92,2812.68 1159.44,2809.69 856.48,2899.88 764.55,2924.64 732.22,2933.35 723.73,2939.19 560.59,3030.38 523.79,3051.87 504.65,3067.84 352.92,3352.35 235.73,3406.97 108.90,3456.88 36.32,3469.60 4.16,3468.88 -76.84,3433.01 -119.96,3406.78 -186.73,3329.49 -190.05,3299.34 -186.36,3280.14 -197.67,3276.41 -213.24,3275.24 -225.66,3279.16 -398.08,3262.56 -400.54,3257.95 -401.78,3255.62 -404.57,3243.79 -377.46,3175.71 -276.56,2942.38 -177.34,2706.84 -118.05,2582.55 -88.30,2529.43 -29.38,2454.65 -28.11,2375.66 -35.17,2311.03"/>
    <poly id="345911403" type="building" color="255,230,230" fill="1" layer="-1.00" shape="1046.93,346.88 1055.68,347.78 1057.12,334.00 1048.37,333.10 1046.93,346.88"/>
    <poly id="345911427" type="building" color="255,230,230" fill="1" layer="-1.00" shape="1083.00,365.19 1084.22,344.54 1075.15,344.02 1073.93,364.65 1083.00,365.19"/>
    <poly id="345911449" type="building" color="255,230,230" fill="1" layer="-1.00" shape="1063.98,343.66 1074.75,343.57 1074.57,323.41 1063.81,323.50 1063.98,343.66"/>
    <poly id="345911459" type="building" color="255,230,230" fill="1" layer="-1.00" shape="964.86,401.73 974.15,400.95 973.04,388.08 963.76,388.87 964.86,401.73"/>
    <poly id="345911471" type="building" color="255,230,230" fill="1" layer="-1.00" shape="996.22,401.40 1007.01,401.06 1006.72,391.92 995.92,392.27 996.22,401.40"/>
    <poly id="345911476" type="building" color="255,230,230" fill="1" layer="-1.00" shape="1057.36,463.54 1065.68,463.88 1066.38,447.14 1058.06,446.78 1057.36,463.54"/>
    <poly id="345911483" type="building" color="255,230,230" fill="1" layer="-1.00" shape="1089.84,434.97 1115.76,435.96 1116.61,407.62 1090.88,405.17 1089.84,434.97"/>
    <poly id="345911538" type="building" color="255,230,230" fill="1" layer="-1.00" shape="1029.14,377.56 1038.24,378.02 1038.85,366.05 1029.76,365.59 1029.14,377.56"/>
    <poly id="345911540" type="building" color="255,230,230" fill="1" layer="-1.00" shape="1138.69,441.43 1150.19,441.34 1150.04,420.23 1138.54,420.31 1138.69,441.43"/>
    <poly id="345911542" type="building" color="255,230,230" fill="1" layer="-1.00" shape="1057.40,425.70 1066.90,425.74 1066.97,406.23 1057.47,406.18 1057.40,425.70"/>
    <poly id="345911578" type="building" color="255,230,230" fill="1" layer="-1.00" shape="1116.08,458.84 1116.33,447.08 1109.42,446.94 1109.17,458.70 1116.08,458.84"/>
    <poly id="345911585" type="building" color="255,230,230" fill="1" layer="-1.00" shape="1076.03,341.85 1084.02,342.16 1084.73,323.95 1076.74,323.63 1076.03,341.85"/>
    <poly id="345911698" type="building" color="255,230,230" fill="1" layer="-1.00" shape="1068.84,434.96 1076.98,435.53 1078.50,413.97 1070.36,413.40 1068.84,434.96"/>
    <poly id="345911703" type="building" color="255,230,230" fill="1" layer="-1.00" shape="1061.32,380.32 1072.08,380.43 1072.25,364.35 1061.49,364.23 1061.32,380.32"/>
    <poly id="345911761" type="building" color="255,230,230" fill="1" layer="-1.00" shape="1128.30,459.10 1129.45,447.99 1118.09,446.83 1116.93,457.93 1128.30,459.10"/>
    <poly id="345911779" type="building" color="255,230,230" fill="1" layer="-1.00" shape="1152.58,440.93 1163.07,441.22 1163.35,431.36 1152.87,431.05 1152.58,440.93"/>
    <poly id="345911844" type="building" color="255,230,230" fill="1" layer="-1.00" shape="966.58,416.93 966.06,402.41 957.15,402.72 957.66,417.24 966.58,416.93"/>
    <poly id="345911855" type="building" color="255,230,230" fill="1" layer="-1.00" shape="1062.88,362.70 1071.70,363.24 1072.82,345.42 1064.00,344.88 1062.88,362.70"/>
    <poly id="345911906" type="building" color="255,230,230" fill="1" layer="-1.00" shape="1041.21,358.96 1051.60,359.97 1052.71,348.82 1042.33,347.80 1041.21,358.96"/>
    <poly id="345911910" type="building" color="255,230,230" fill="1" layer="-1.00" shape="1057.02,445.70 1067.44,445.55 1067.16,427.16 1056.76,427.32 1057.02,445.70"/>
    <poly id="345911922" type="building" color="255,230,230" fill="1" layer="-1.00" shape="1042.70,376.01 1055.11,376.80 1056.11,361.37 1043.68,360.58 1042.70,376.01"/>
    <poly id="345911933" type="building" color="255,230,230" fill="1" layer="-1.00" shape="1070.95,411.47 1079.58,411.78 1080.48,387.02 1071.84,386.71 1070.95,411.47"/>
    <poly id="345911943" type="building" color="255,230,230" fill="1" layer="-1.00" shape="1150.28,459.19 1151.04,448.35 1132.67,447.08 1131.91,457.92 1150.28,459.19"/>
    <poly id="345911962" type="building" color="255,230,230" fill="1" layer="-1.00" shape="1031.75,341.67 1035.75,343.29 1051.20,325.54 1034.75,323.49 1031.75,341.67"/>
    <poly id="345911964" type="building" color="255,230,230" fill="1" layer="-1.00" shape="1059.06,404.67 1070.09,404.88 1070.48,384.43 1059.45,384.23 1059.06,404.67"/>
    <poly id="345911980" type="building" color="255,230,230" fill="1" layer="-1.00" shape="1090.70,460.14 1105.51,460.93 1106.47,443.41 1091.65,442.61 1090.70,460.14"/>
    <poly id="345911992" type="building" color="255,230,230" fill="1" layer="-1.00" shape="1188.61,379.00 1194.13,379.13 1194.34,369.69 1188.81,369.56 1188.61,379.00"/>
    <poly id="345912064" type="building" color="255,230,230" fill="1" layer="-1.00" shape="1070.25,462.37 1086.51,462.54 1086.71,443.16 1070.45,442.99 1070.25,462.37"/>
    <poly id="345912066" type="building" color="255,230,230" fill="1" layer="-1.00" shape="1081.51,385.28 1082.61,366.83 1073.54,366.28 1072.44,384.74 1081.51,385.28"/>
    <poly id="345912087" type="building" color="255,230,230" fill="1" layer="-1.00" shape="1010.05,350.35 1020.89,351.02 1022.28,328.59 1011.43,327.93 1010.05,350.35"/>
    <poly id="345912101" type="building" color="255,230,230" fill="1" layer="-1.00" shape="1118.85,441.17 1131.86,441.55 1132.05,435.37 1119.05,434.98 1118.85,441.17"/>
    <poly id="345912105" type="building" color="255,230,230" fill="1" layer="-1.00" shape="1132.98,364.33 1107.33,363.61 1106.92,377.85 1132.57,378.58 1132.98,364.33"/>
    <poly id="345912116" type="building" color="255,230,230" fill="1" layer="-1.00" shape="1155.50,417.16 1172.60,417.88 1173.00,408.39 1155.90,407.67 1155.50,417.16"/>
    <poly id="345912154" type="building" color="255,230,230" fill="1" layer="-1.00" shape="1155.93,404.44 1179.48,404.14 1179.33,392.72 1182.68,392.68 1182.55,383.54 1155.65,383.88 1155.93,404.44"/>
    <poly id="345912163" type="building" color="255,230,230" fill="1" layer="-1.00" shape="1008.21,389.10 1022.56,388.24 1022.80,369.28 1018.44,372.47 1017.77,381.02 1007.76,381.62 1007.66,380.13 1008.21,389.10"/>
    <poly id="345955126" type="building" color="255,230,230" fill="1" layer="-1.00" shape="1296.79,140.81 1302.04,138.96 1297.04,124.93 1291.78,126.78 1296.79,140.81"/>
    <poly id="345955128" type="building" color="255,230,230" fill="1" layer="-1.00" shape="1260.05,157.38 1273.89,152.10 1271.38,145.60 1257.54,150.89 1260.05,157.38"/>
    <poly id="345955151" type="building" color="255,230,230" fill="1" layer="-1.00" shape="1247.41,121.66 1271.23,112.76 1268.80,106.34 1244.97,115.23 1247.41,121.66"/>
    <poly id="345955156" type="building" color="255,230,230" fill="1" layer="-1.00" shape="1257.43,177.41 1274.66,171.26 1272.51,165.31 1255.27,171.47 1257.43,177.41"/>
    <poly id="345955164" type="building" color="255,230,230" fill="1" layer="-1.00" shape="1322.43,120.86 1329.67,119.39 1328.02,111.46 1320.80,112.94 1322.43,120.86"/>
    <poly id="345955167" type="building" color="255,230,230" fill="1" layer="-1.00" shape="1324.58,155.59 1332.12,154.47 1329.80,139.07 1322.28,140.19 1324.58,155.59"/>
    <poly id="345955184" type="building" color="255,230,230" fill="1" layer="-1.00" shape="1222.49,121.22 1243.08,113.67 1240.40,106.48 1219.81,114.04 1222.49,121.22"/>
    <poly id="345955186" type="building" color="255,230,230" fill="1" layer="-1.00" shape="1328.80,133.69 1336.50,131.77 1334.09,122.24 1326.39,124.17 1328.80,133.69"/>
    <poly id="345955188" type="building" color="255,230,230" fill="1" layer="-1.00" shape="1255.21,250.39 1265.69,235.41 1261.92,226.05 1247.21,232.57 1255.21,250.39"/>
    <poly id="345955190" type="building" color="255,230,230" fill="1" layer="-1.00" shape="1276.88,185.95 1289.60,182.97 1287.91,175.82 1275.19,178.80 1276.88,185.95"/>
    <poly id="345955195" type="building" color="255,230,230" fill="1" layer="-1.00" shape="1275.95,136.48 1282.69,134.27 1279.24,123.90 1272.49,126.11 1275.95,136.48"/>
    <poly id="345955197" type="building" color="255,230,230" fill="1" layer="-1.00" shape="1353.47,117.31 1360.65,117.29 1360.61,103.22 1353.43,103.25 1353.47,117.31"/>
    <poly id="345955199" type="building" color="255,230,230" fill="1" layer="-1.00" shape="1238.58,158.58 1251.72,153.35 1244.63,135.71 1231.47,140.94 1238.58,158.58"/>
    <poly id="345955208" type="building" color="255,230,230" fill="1" layer="-1.00" shape="1338.72,131.86 1346.00,130.97 1344.76,120.89 1337.46,121.78 1338.72,131.86"/>
    <poly id="345955223" type="building" color="255,230,230" fill="1" layer="-1.00" shape="1303.89,138.33 1312.67,135.74 1309.73,125.92 1300.96,128.52 1303.89,138.33"/>
    <poly id="345955225" type="building" color="255,230,230" fill="1" layer="-1.00" shape="1253.79,150.40 1266.84,145.88 1262.47,133.44 1249.42,137.95 1253.79,150.40"/>
    <poly id="345955231" type="building" color="255,230,230" fill="1" layer="-1.00" shape="1249.33,205.64 1259.27,200.96 1253.86,189.63 1243.93,194.31 1249.33,205.64"/>
    <poly id="345955277" type="building" color="255,230,230" fill="1" layer="-1.00" shape="1205.86,144.35 1220.68,138.30 1218.29,132.51 1203.47,138.57 1205.86,144.35"/>
    <poly id="345955278" type="building" color="255,230,230" fill="1" layer="-1.00" shape="1291.65,123.85 1297.02,121.84 1292.15,109.00 1286.78,111.01 1291.65,123.85"/>
    <poly id="345955282" type="building" color="255,230,230" fill="1" layer="-1.00" shape="1255.69,221.23 1266.47,217.07 1260.77,202.49 1250.01,206.65 1255.69,221.23"/>
    <poly id="345955284" type="building" color="255,230,230" fill="1" layer="-1.00" shape="1300.68,165.55 1311.81,162.20 1305.40,141.19 1294.26,144.55 1300.68,165.55"/>
    <poly id="345955305" type="building" color="255,230,230" fill="1" layer="-1.00" shape="1267.61,228.34 1273.80,224.09 1268.73,216.81 1262.54,221.07 1267.61,228.34"/>
    <poly id="345955306" type="building" color="255,230,230" fill="1" layer="-1.00" shape="1292.21,180.25 1302.53,178.08 1301.23,172.01 1290.90,174.18 1292.21,180.25"/>
    <poly id="345955309" type="building" color="255,230,230" fill="1" layer="-1.00" shape="1266.97,125.15 1275.00,122.49 1272.23,114.26 1264.20,116.92 1266.97,125.15"/>
    <poly id="345955311" type="building" color="255,230,230" fill="1" layer="-1.00" shape="1220.10,184.62 1240.08,176.69 1234.19,162.03 1214.20,169.96 1220.10,184.62"/>
    <poly id="345955370" type="building" color="255,230,230" fill="1" layer="-1.00" shape="1350.42,132.16 1355.55,129.97 1352.96,123.93 1347.81,126.13 1350.42,132.16"/>
    <poly id="345955448" type="building" color="255,230,230" fill="1" layer="-1.00" shape="1282.92,126.42 1288.92,124.28 1286.90,118.69 1280.90,120.82 1282.92,126.42"/>
    <poly id="345955461" type="building" color="255,230,230" fill="1" layer="-1.00" shape="1282.29,170.02 1291.07,167.39 1288.43,158.69 1279.65,161.33 1282.29,170.02"/>
    <poly id="345955539" type="building" color="255,230,230" fill="1" layer="-1.00" shape="1200.33,129.21 1218.33,122.82 1216.27,117.07 1198.26,123.46 1200.33,129.21"/>
    <poly id="345955543" type="building" color="255,230,230" fill="1" layer="-1.00" shape="1303.62,116.59 1312.97,117.21 1313.20,113.86 1303.83,113.24 1303.62,116.59"/>
    <poly id="345955551" type="building" color="255,230,230" fill="1" layer="-1.00" shape="1274.07,217.63 1282.15,211.68 1275.88,203.30 1267.81,209.25 1274.07,217.63"/>
    <poly id="345955554" type="building" color="255,230,230" fill="1" layer="-1.00" shape="1316.06,161.70 1322.15,160.53 1317.83,138.26 1311.74,139.43 1316.06,161.70"/>
    <poly id="345955576" type="building" color="255,230,230" fill="1" layer="-1.00" shape="1242.96,174.79 1251.36,171.28 1246.15,158.95 1237.75,162.45 1242.96,174.79"/>
    <poly id="345955581" type="building" color="255,230,230" fill="1" layer="-1.00" shape="1365.88,122.20 1380.11,106.91 1368.03,105.67 1365.88,122.20"/>
    <poly id="345955594" type="building" color="255,230,230" fill="1" layer="-1.00" shape="1314.94,122.08 1320.67,121.16 1319.52,116.42 1314.16,117.23 1314.94,122.08"/>
    <poly id="345955649" type="building" color="255,230,230" fill="1" layer="-1.00" shape="1280.82,146.77 1287.08,145.06 1284.42,135.44 1278.16,137.14 1280.82,146.77"/>
    <poly id="345955661" type="building" color="255,230,230" fill="1" layer="-1.00" shape="1210.51,156.23 1229.71,148.80 1225.77,138.75 1206.57,146.18 1210.51,156.23"/>
    <poly id="345955669" type="building" color="255,230,230" fill="1" layer="-1.00" shape="1198.85,121.25 1212.24,116.13 1205.16,97.87 1191.77,102.99 1198.85,121.25"/>
    <poly id="345955693" type="building" color="255,230,230" fill="1" layer="-1.00" shape="1288.75,144.38 1295.22,142.07 1290.30,128.49 1283.83,130.80 1288.75,144.38"/>
    <poly id="345955703" type="building" color="255,230,230" fill="1" layer="-1.00" shape="1215.46,167.65 1235.71,159.84 1231.94,150.21 1211.70,158.00 1215.46,167.65"/>
    <poly id="345955722" type="building" color="255,230,230" fill="1" layer="-1.00" shape="1232.22,213.08 1247.90,206.79 1243.15,195.13 1227.47,201.44 1232.22,213.08"/>
    <poly id="345955730" type="building" color="255,230,230" fill="1" layer="-1.00" shape="1277.57,120.48 1286.19,117.79 1283.90,110.59 1275.30,113.28 1277.57,120.48"/>
    <poly id="345955734" type="building" color="255,230,230" fill="1" layer="-1.00" shape="1280.60,157.34 1294.17,153.73 1292.12,146.10 1278.55,149.71 1280.60,157.34"/>
    <poly id="345955741" type="building" color="255,230,230" fill="1" layer="-1.00" shape="1334.27,120.53 1340.65,119.70 1339.48,110.80 1333.09,111.64 1334.27,120.53"/>
    <poly id="345955742" type="building" color="255,230,230" fill="1" layer="-1.00" shape="1224.07,196.20 1254.38,183.19 1250.70,174.73 1220.39,187.73 1224.07,196.20"/>
    <poly id="345955757" type="building" color="255,230,230" fill="1" layer="-1.00" shape="1252.07,133.50 1260.18,131.02 1256.73,119.80 1248.60,122.28 1252.07,133.50"/>
    <poly id="345955759" type="building" color="255,230,230" fill="1" layer="-1.00" shape="1252.51,170.22 1263.34,166.28 1259.41,155.65 1248.59,159.59 1252.51,170.22"/>
    <poly id="345955790" type="building" color="255,230,230" fill="1" layer="-1.00" shape="1278.92,200.12 1289.48,197.13 1286.27,185.91 1275.69,188.90 1278.92,200.12"/>
    <poly id="347082161" type="building" color="255,230,230" fill="1" layer="-1.00" shape="1009.91,265.21 1033.44,266.55 1033.94,257.79 1010.41,256.46 1009.91,265.21"/>
    <poly id="347082167" type="building" color="255,230,230" fill="1" layer="-1.00" shape="999.74,125.08 1010.60,137.06 1020.13,128.52 1009.29,116.54 999.74,125.08"/>
    <poly id="347082193" type="building" color="255,230,230" fill="1" layer="-1.00" shape="1033.83,236.18 1048.16,239.77 1050.59,230.22 1036.26,226.63 1033.83,236.18"/>
    <poly id="347082198" type="building" color="255,230,230" fill="1" layer="-1.00" shape="1017.62,163.81 1026.05,155.75 1019.84,149.34 1011.41,157.40 1017.62,163.81"/>
    <poly id="347082218" type="building" color="255,230,230" fill="1" layer="-1.00" shape="1055.08,228.07 1069.28,231.63 1072.88,217.40 1058.67,213.85 1055.08,228.07"/>
    <poly id="347082230" type="building" color="255,230,230" fill="1" layer="-1.00" shape="980.91,277.92 980.81,279.66 992.34,280.30 992.43,278.56 993.01,268.50 985.49,268.07 981.49,267.85 980.91,277.92"/>
    <poly id="347082261" type="building" color="255,230,230" fill="1" layer="-1.00" shape="1090.33,120.23 1101.44,113.50 1097.05,106.35 1085.94,113.08 1090.33,120.23"/>
    <poly id="347082279" type="building" color="255,230,230" fill="1" layer="-1.00" shape="1071.01,231.13 1088.76,235.58 1091.57,224.47 1073.83,220.04 1071.01,231.13"/>
    <poly id="347082285" type="building" color="255,230,230" fill="1" layer="-1.00" shape="964.26,281.67 973.65,282.20 974.49,267.65 965.10,267.12 964.26,281.67"/>
    <poly id="347082299" type="building" color="255,230,230" fill="1" layer="-1.00" shape="993.93,279.35 1004.20,279.93 1004.87,268.34 994.59,267.76 993.93,279.35"/>
    <poly id="347082316" type="building" color="255,230,230" fill="1" layer="-1.00" shape="1105.43,145.44 1115.73,139.21 1111.04,131.55 1100.74,137.79 1105.43,145.44"/>
    <poly id="347082329" type="building" color="255,230,230" fill="1" layer="-1.00" shape="1007.32,293.06 1030.25,294.36 1030.83,284.05 1007.91,282.75 1007.32,293.06"/>
    <poly id="347082344" type="building" color="255,230,230" fill="1" layer="-1.00" shape="1160.13,125.44 1172.68,120.14 1167.96,109.11 1155.41,114.41 1160.13,125.44"/>
    <poly id="347082377" type="building" color="255,230,230" fill="1" layer="-1.00" shape="1180.97,180.10 1201.68,171.34 1199.10,165.30 1178.37,174.07 1180.97,180.10"/>
    <poly id="347082384" type="building" color="255,230,230" fill="1" layer="-1.00" shape="1052.27,242.06 1068.28,246.06 1070.70,236.56 1054.68,232.55 1052.27,242.06"/>
    <poly id="347082392" type="building" color="255,230,230" fill="1" layer="-1.00" shape="1076.61,218.15 1101.20,224.39 1102.85,217.96 1078.26,211.71 1076.61,218.15"/>
    <poly id="347082400" type="building" color="255,230,230" fill="1" layer="-1.00" shape="1135.11,195.76 1146.73,190.85 1142.41,180.78 1130.80,185.70 1135.11,195.76"/>
    <poly id="347082408" type="building" color="255,230,230" fill="1" layer="-1.00" shape="984.98,228.29 997.19,233.56 1000.84,225.21 988.63,219.94 984.98,228.29"/>
    <poly id="347082415" type="building" color="255,230,230" fill="1" layer="-1.00" shape="1116.14,162.92 1127.94,155.78 1123.71,148.88 1111.91,156.02 1116.14,162.92"/>
    <poly id="347082422" type="building" color="255,230,230" fill="1" layer="-1.00" shape="963.28,296.25 969.96,296.63 970.73,283.37 964.03,282.99 963.28,296.25"/>
    <poly id="347082486" type="building" color="255,230,230" fill="1" layer="-1.00" shape="1095.31,126.83 1105.06,120.94 1101.16,114.59 1091.42,120.49 1095.31,126.83"/>
    <poly id="347082503" type="building" color="255,230,230" fill="1" layer="-1.00" shape="1145.50,115.01 1157.42,109.97 1153.47,100.73 1141.55,105.77 1145.50,115.01"/>
    <poly id="347082509" type="building" color="255,230,230" fill="1" layer="-1.00" shape="1141.23,177.97 1153.77,172.66 1150.11,164.13 1137.57,169.43 1141.23,177.97"/>
    <poly id="347082519" type="building" color="255,230,230" fill="1" layer="-1.00" shape="1074.13,252.67 1103.64,256.33 1105.51,241.51 1076.00,237.84 1074.13,252.67"/>
    <poly id="347082578" type="building" color="255,230,230" fill="1" layer="-1.00" shape="1023.49,169.19 1032.41,160.66 1027.68,155.78 1018.75,164.31 1023.49,169.19"/>
    <poly id="347082583" type="building" color="255,230,230" fill="1" layer="-1.00" shape="1183.51,165.03 1203.31,156.66 1200.88,151.00 1181.08,159.36 1183.51,165.03"/>
    <poly id="347082602" type="building" color="255,230,230" fill="1" layer="-1.00" shape="1205.27,180.87 1211.64,178.18 1208.20,170.14 1201.84,172.85 1205.27,180.87"/>
    <poly id="347082616" type="building" color="255,230,230" fill="1" layer="-1.00" shape="1116.42,205.45 1132.95,198.47 1128.19,187.34 1111.66,194.32 1116.42,205.45"/>
    <poly id="347082655" type="building" color="255,230,230" fill="1" layer="-1.00" shape="947.09,168.04 961.33,174.56 969.21,157.52 954.99,151.01 947.09,168.04"/>
    <poly id="347082662" type="building" color="255,230,230" fill="1" layer="-1.00" shape="1053.36,145.18 1062.12,137.74 1056.33,131.00 1047.57,138.43 1053.36,145.18"/>
    <poly id="347082678" type="building" color="255,230,230" fill="1" layer="-1.00" shape="1061.33,178.34 1077.14,167.63 1071.14,158.88 1055.32,169.59 1061.33,178.34"/>
    <poly id="347082694" type="building" color="255,230,230" fill="1" layer="-1.00" shape="1042.68,209.39 1053.56,212.11 1056.24,201.56 1045.36,198.83 1042.68,209.39"/>
    <poly id="347082714" type="building" color="255,230,230" fill="1" layer="-1.00" shape="1147.77,191.12 1158.67,186.52 1153.31,173.97 1142.40,178.59 1147.77,191.12"/>
    <poly id="347082732" type="building" color="255,230,230" fill="1" layer="-1.00" shape="969.25,224.23 982.82,230.08 987.26,219.91 973.69,214.06 969.25,224.23"/>
    <poly id="347082772" type="building" color="255,230,230" fill="1" layer="-1.00" shape="1055.87,120.90 1065.31,112.89 1060.34,107.10 1050.90,115.11 1055.87,120.90"/>
    <poly id="347082820" type="building" color="255,230,230" fill="1" layer="-1.00" shape="963.74,174.61 977.48,180.83 983.34,168.07 969.59,161.84 963.74,174.61"/>
    <poly id="347082823" type="building" color="255,230,230" fill="1" layer="-1.00" shape="1058.41,266.32 1069.79,266.96 1070.83,248.59 1059.46,247.94 1058.41,266.32"/>
    <poly id="347082839" type="building" color="255,230,230" fill="1" layer="-1.00" shape="1063.89,137.15 1072.40,129.93 1067.22,123.91 1058.72,131.13 1063.89,137.15"/>
    <poly id="347082845" type="building" color="255,230,230" fill="1" layer="-1.00" shape="965.76,242.52 972.47,244.69 976.03,233.83 969.32,231.66 965.76,242.52"/>
    <poly id="347082851" type="building" color="255,230,230" fill="1" layer="-1.00" shape="1111.82,119.05 1122.12,112.81 1118.66,107.15 1108.35,113.39 1111.82,119.05"/>
    <poly id="347082866" type="building" color="255,230,230" fill="1" layer="-1.00" shape="1079.52,161.77 1088.81,155.84 1083.70,150.16 1074.64,155.63 1079.52,161.77"/>
    <poly id="347082933" type="building" color="255,230,230" fill="1" layer="-1.00" shape="963.48,122.77 971.18,129.31 980.94,117.99 973.24,111.44 963.48,122.77"/>
    <poly id="347082996" type="building" color="255,230,230" fill="1" layer="-1.00" shape="1034.46,143.49 1042.96,136.28 1035.75,127.90 1027.25,135.10 1034.46,143.49"/>
    <poly id="347083012" type="building" color="255,230,230" fill="1" layer="-1.00" shape="1014.23,254.10 1036.61,255.36 1037.37,242.30 1014.97,241.03 1014.23,254.10"/>
    <poly id="347083018" type="building" color="255,230,230" fill="1" layer="-1.00" shape="1022.47,128.28 1033.04,118.83 1021.23,105.79 1010.66,115.24 1022.47,128.28"/>
    <poly id="347083026" type="building" color="255,230,230" fill="1" layer="-1.00" shape="1036.39,157.73 1049.70,146.44 1042.98,138.62 1029.67,149.91 1036.39,157.73"/>
    <poly id="347083035" type="building" color="255,230,230" fill="1" layer="-1.00" shape="1149.17,130.76 1157.29,125.84 1150.47,114.70 1142.35,119.62 1149.17,130.76"/>
    <poly id="347083076" type="building" color="255,230,230" fill="1" layer="-1.00" shape="974.05,245.25 978.18,246.59 981.66,235.94 977.54,234.60 974.05,245.25"/>
    <poly id="347083094" type="building" color="255,230,230" fill="1" layer="-1.00" shape="956.68,250.83 972.81,251.74 973.09,246.88 956.95,245.97 956.68,250.83"/>
    <poly id="347083118" type="building" color="255,230,230" fill="1" layer="-1.00" shape="1079.67,127.66 1089.17,121.90 1084.46,114.22 1074.96,119.97 1079.67,127.66"/>
    <poly id="347083131" type="building" color="255,230,230" fill="1" layer="-1.00" shape="995.48,266.37 1007.83,267.07 1008.37,257.71 996.02,257.02 995.48,266.37"/>
    <poly id="347083142" type="building" color="255,230,230" fill="1" layer="-1.00" shape="1110.40,154.71 1122.30,147.53 1117.39,139.51 1105.50,146.71 1110.40,154.71"/>
    <poly id="347083157" type="building" color="255,230,230" fill="1" layer="-1.00" shape="971.50,130.61 980.61,138.37 989.78,127.71 980.66,119.97 971.50,130.61"/>
    <poly id="347083181" type="building" color="255,230,230" fill="1" layer="-1.00" shape="1038.02,289.43 1061.86,292.20 1066.98,267.35 1041.85,264.90 1038.02,289.43"/>
    <poly id="347083195" type="building" color="255,230,230" fill="1" layer="-1.00" shape="1038.51,181.88 1046.54,174.20 1041.13,168.63 1033.12,176.31 1038.51,181.88"/>
    <poly id="347083199" type="building" color="255,230,230" fill="1" layer="-1.00" shape="1174.73,140.67 1192.90,132.99 1190.12,126.48 1171.94,134.16 1174.73,140.67"/>
    <poly id="347083203" type="building" color="255,230,230" fill="1" layer="-1.00" shape="1008.50,158.29 1017.30,150.43 1012.21,144.80 1003.41,152.66 1008.50,158.29"/>
    <poly id="347083207" type="building" color="255,230,230" fill="1" layer="-1.00" shape="959.59,240.80 964.74,242.47 968.75,230.25 963.59,228.59 959.59,240.80"/>
    <poly id="347083210" type="building" color="255,230,230" fill="1" layer="-1.00" shape="1115.58,128.07 1125.70,121.96 1121.50,115.12 1111.40,121.23 1115.58,128.07"/>
    <poly id="347083213" type="building" color="255,230,230" fill="1" layer="-1.00" shape="998.48,168.01 1005.48,161.28 999.55,155.17 992.53,161.88 998.48,168.01"/>
    <poly id="347083220" type="building" color="255,230,230" fill="1" layer="-1.00" shape="1095.33,151.62 1104.60,146.01 1100.37,139.11 1091.10,144.73 1095.33,151.62"/>
    <poly id="347083228" type="building" color="255,230,230" fill="1" layer="-1.00" shape="1092.81,200.84 1108.08,194.39 1105.17,187.60 1089.91,194.06 1092.81,200.84"/>
    <poly id="347083237" type="building" color="255,230,230" fill="1" layer="-1.00" shape="959.77,261.80 967.78,262.25 968.21,254.59 960.20,254.14 959.77,261.80"/>
    <poly id="347083241" type="building" color="255,230,230" fill="1" layer="-1.00" shape="978.84,291.81 991.18,292.52 991.84,280.92 979.50,280.22 978.84,291.81"/>
    <poly id="347083256" type="building" color="255,230,230" fill="1" layer="-1.00" shape="996.43,255.91 1008.44,256.59 1009.05,246.04 997.04,245.35 996.43,255.91"/>
    <poly id="347083272" type="building" color="255,230,230" fill="1" layer="-1.00" shape="1124.66,145.97 1131.18,142.03 1126.96,135.16 1120.45,139.10 1124.66,145.97"/>
    <poly id="347083283" type="building" color="255,230,230" fill="1" layer="-1.00" shape="1159.30,178.72 1167.54,175.23 1160.63,159.09 1152.38,162.57 1159.30,178.72"/>
    <poly id="347083302" type="building" color="255,230,230" fill="1" layer="-1.00" shape="1081.64,170.88 1101.15,159.08 1097.13,152.53 1077.63,164.33 1081.64,170.88"/>
    <poly id="347083315" type="building" color="255,230,230" fill="1" layer="-1.00" shape="1031.43,175.73 1039.90,167.63 1033.92,161.45 1025.44,169.57 1031.43,175.73"/>
    <poly id="347083319" type="building" color="255,230,230" fill="1" layer="-1.00" shape="1179.06,148.46 1189.25,144.14 1192.69,152.16 1201.38,148.49 1194.71,132.95 1175.83,140.93 1179.06,148.46"/>
    <poly id="347083335" type="building" color="255,230,230" fill="1" layer="-1.00" shape="1127.31,186.34 1134.71,183.20 1132.20,177.31 1124.78,180.44 1127.31,186.34"/>
    <poly id="347083338" type="building" color="255,230,230" fill="1" layer="-1.00" shape="1090.76,143.24 1099.80,137.77 1095.41,130.60 1086.36,136.08 1090.76,143.24"/>
    <poly id="347083404" type="building" color="255,230,230" fill="1" layer="-1.00" shape="1042.66,189.87 1052.85,183.18 1048.58,176.77 1038.41,183.47 1042.66,189.87"/>
    <poly id="347083409" type="building" color="255,230,230" fill="1" layer="-1.00" shape="1169.28,134.32 1188.73,126.09 1184.69,116.66 1165.24,124.89 1169.28,134.32"/>
    <poly id="347083414" type="building" color="255,230,230" fill="1" layer="-1.00" shape="1170.28,170.78 1179.35,166.95 1172.37,150.61 1163.28,154.45 1170.28,170.78"/>
    <poly id="347083438" type="building" color="255,230,230" fill="1" layer="-1.00" shape="1040.83,116.91 1048.86,110.10 1044.62,105.17 1036.59,111.97 1040.83,116.91"/>
    <poly id="347083442" type="building" color="255,230,230" fill="1" layer="-1.00" shape="1100.45,170.58 1114.66,161.98 1111.11,156.21 1096.92,164.80 1100.45,170.58"/>
    <poly id="347083453" type="building" color="255,230,230" fill="1" layer="-1.00" shape="941.83,195.81 968.20,207.18 977.54,185.79 951.19,174.41 941.83,195.81"/>
    <poly id="347083473" type="building" color="255,230,230" fill="1" layer="-1.00" shape="1065.76,147.37 1077.71,137.23 1073.72,132.58 1061.77,142.72 1065.76,147.37"/>
    <poly id="347083534" type="building" color="255,230,230" fill="1" layer="-1.00" shape="976.82,253.88 989.94,258.12 993.52,247.16 980.41,242.92 976.82,253.88"/>
    <poly id="347083551" type="building" color="255,230,230" fill="1" layer="-1.00" shape="1084.53,179.44 1098.49,171.00 1094.51,164.50 1080.55,172.95 1084.53,179.44"/>