<?xml version="1.0" encoding="UTF-8"?>

<!-- generated on Thursday 08 February 2018 01:44:16 PM IST by Netedit Version 0.32.0
<?xml version="1.0" encoding="UTF-8"?>

<configuration xmlns:xsi="http://www.w3.org/2001/XMLSchema-instance" xsi:noNamespaceSchemaLocation="http://sumo.dlr.de/xsd/netconvertConfiguration.xsd">

    <input>
        <sumo-net-file value="/home/mtuity/Study/Projects/Traffic_Simulation/ijipura_signal/data/ijipura.net.xml"/>
    </input>

    <output>
        <output-file value="/home/mtuity/Study/Projects/Traffic_Simulation/ijipura_signal/data/ijipura.net.xml"/>
    </output>

    <processing>
        <no-turnarounds value="true"/>
        <offset.disable-normalization value="true"/>
        <lefthand value="false"/>
        <junctions.corner-detail value="0"/>
        <rectangular-lane-cut value="false"/>
        <walkingareas value="false"/>
    </processing>

</configuration>
-->

<net version="0.27" xmlns:xsi="http://www.w3.org/2001/XMLSchema-instance" xsi:noNamespaceSchemaLocation="http://sumo.dlr.de/xsd/net_file.xsd">

    <location netOffset="-784421.35,-1431493.61" convBoundary="724.38,204.50,2166.20,2944.33" origBoundary="77.621477,12.935664,77.641512,12.962332" projParameter="+proj=utm +zone=43 +ellps=WGS84 +datum=WGS84 +units=m +no_defs"/>

    <type id="highway.bridleway" priority="1" numLanes="1" speed="2.78" allow="pedestrian" oneway="1" width="2.00"/>
    <type id="highway.bus_guideway" priority="1" numLanes="1" speed="8.33" allow="bus" oneway="1"/>
    <type id="highway.cycleway" priority="1" numLanes="1" speed="5.56" allow="bicycle" oneway="0" width="1.00"/>
    <type id="highway.footway" priority="1" numLanes="1" speed="2.78" allow="pedestrian" oneway="1" width="2.00"/>
    <type id="highway.ford" priority="1" numLanes="1" speed="2.78" allow="army" oneway="0"/>
    <type id="highway.living_street" priority="3" numLanes="1" speed="2.78" disallow="tram rail_urban rail rail_electric ship" oneway="0"/>
    <type id="highway.motorway" priority="13" numLanes="2" speed="44.44" allow="private emergency authority army vip passenger hov taxi bus coach delivery truck trailer motorcycle evehicle custom1 custom2" oneway="1"/>
    <type id="highway.motorway_link" priority="12" numLanes="1" speed="22.22" allow="private emergency authority army vip passenger hov taxi bus coach delivery truck trailer motorcycle evehicle custom1 custom2" oneway="1"/>
    <type id="highway.path" priority="1" numLanes="1" speed="2.78" allow="bicycle pedestrian" oneway="1" width="2.00"/>
    <type id="highway.pedestrian" priority="1" numLanes="1" speed="2.78" allow="pedestrian" oneway="1" width="2.00"/>
    <type id="highway.primary" priority="9" numLanes="2" speed="27.78" disallow="tram rail_urban rail rail_electric ship" oneway="0"/>
    <type id="highway.primary_link" priority="8" numLanes="1" speed="22.22" disallow="tram rail_urban rail rail_electric ship" oneway="0"/>
    <type id="highway.raceway" priority="14" numLanes="2" speed="83.33" allow="vip" oneway="0"/>
    <type id="highway.residential" priority="4" numLanes="1" speed="13.89" disallow="tram rail_urban rail rail_electric ship" oneway="0"/>
    <type id="highway.secondary" priority="7" numLanes="2" speed="27.78" disallow="tram rail_urban rail rail_electric ship" oneway="0"/>
    <type id="highway.secondary_link" priority="6" numLanes="1" speed="22.22" disallow="tram rail_urban rail rail_electric ship" oneway="0"/>
    <type id="highway.service" priority="2" numLanes="1" speed="5.56" allow="delivery bicycle pedestrian" oneway="0"/>
    <type id="highway.services" priority="1" numLanes="1" speed="8.33" disallow="tram rail_urban rail rail_electric ship" oneway="0"/>
    <type id="highway.stairs" priority="1" numLanes="1" speed="1.39" allow="pedestrian" oneway="1" width="2.00"/>
    <type id="highway.step" priority="1" numLanes="1" speed="1.39" allow="pedestrian" oneway="1" width="2.00"/>
    <type id="highway.steps" priority="1" numLanes="1" speed="1.39" allow="pedestrian" oneway="1" width="2.00"/>
    <type id="highway.tertiary" priority="6" numLanes="1" speed="22.22" disallow="tram rail_urban rail rail_electric ship" oneway="0"/>
    <type id="highway.tertiary_link" priority="5" numLanes="1" speed="22.22" disallow="tram rail_urban rail rail_electric ship" oneway="0"/>
    <type id="highway.track" priority="1" numLanes="1" speed="5.56" disallow="tram rail_urban rail rail_electric ship" oneway="0"/>
    <type id="highway.trunk" priority="11" numLanes="2" speed="27.78" disallow="tram rail_urban rail rail_electric bicycle pedestrian ship" oneway="0"/>
    <type id="highway.trunk_link" priority="10" numLanes="1" speed="22.22" disallow="tram rail_urban rail rail_electric bicycle pedestrian ship" oneway="0"/>
    <type id="highway.unclassified" priority="5" numLanes="1" speed="13.89" disallow="tram rail_urban rail rail_electric ship" oneway="0"/>
    <type id="highway.unsurfaced" priority="1" numLanes="1" speed="8.33" disallow="tram rail_urban rail rail_electric ship" oneway="0"/>
    <type id="railway.light_rail" priority="15" numLanes="1" speed="27.78" allow="rail_urban" oneway="1"/>
    <type id="railway.preserved" priority="15" numLanes="1" speed="27.78" allow="rail" oneway="1"/>
    <type id="railway.rail" priority="15" numLanes="1" speed="83.33" allow="rail rail_electric" oneway="1"/>
    <type id="railway.subway" priority="15" numLanes="1" speed="27.78" allow="rail_urban" oneway="1"/>
    <type id="railway.tram" priority="15" numLanes="1" speed="13.89" allow="tram" oneway="1"/>

    <edge id=":0_0" function="internal">
        <lane id=":0_0_0" index="0" speed="13.89" length="13.75" shape="1244.17,320.31 1239.89,320.65 1236.45,321.62 1233.84,323.22 1232.08,325.44"/>
    </edge>
    <edge id=":0_1" function="internal">
        <lane id=":0_1_0" index="0" speed="13.89" length="17.13" shape="1244.17,320.31 1226.99,320.19"/>
        <lane id=":0_1_1" index="1" speed="13.89" length="17.13" shape="1244.14,317.01 1227.06,316.89"/>
    </edge>
    <edge id=":0_3" function="internal">
        <lane id=":0_3_0" index="0" speed="13.89" length="6.16" shape="1244.14,317.01 1239.56,316.30 1238.43,315.27"/>
    </edge>
    <edge id=":0_14" function="internal">
        <lane id=":0_14_0" index="0" speed="13.89" length="10.95" shape="1238.43,315.27 1237.16,314.11 1236.95,310.42 1238.91,305.24"/>
    </edge>
    <edge id=":0_4" function="internal">
        <lane id=":0_4_0" index="0" speed="13.89" length="5.74" shape="1241.85,306.75 1241.27,308.36 1241.46,309.51 1242.40,310.19 1244.09,310.41"/>
    </edge>
    <edge id=":0_5" function="internal">
        <lane id=":0_5_0" index="0" speed="13.89" length="21.09" shape="1241.85,306.75 1232.08,325.44"/>
    </edge>
    <edge id=":0_6" function="internal">
        <lane id=":0_6_0" index="0" speed="13.89" length="8.96" shape="1241.85,306.75 1238.92,311.26 1236.30,313.70"/>
    </edge>
    <edge id=":0_15" function="internal">
        <lane id=":0_15_0" index="0" speed="13.89" length="10.00" shape="1236.30,313.70 1235.48,314.46 1231.53,316.33 1227.06,316.89"/>
    </edge>
    <edge id=":0_7" function="internal">
        <lane id=":0_7_0" index="0" speed="13.89" length="13.44" shape="1227.20,310.29 1231.31,310.05 1234.63,309.12 1237.17,307.52 1238.91,305.24"/>
    </edge>
    <edge id=":0_8" function="internal">
        <lane id=":0_8_0" index="0" speed="13.89" length="16.94" shape="1227.20,310.29 1244.09,310.41"/>
        <lane id=":0_8_1" index="1" speed="13.89" length="16.94" shape="1227.13,313.59 1244.12,313.71"/>
    </edge>
    <edge id=":0_10" function="internal">
        <lane id=":0_10_0" index="0" speed="13.89" length="5.85" shape="1227.13,313.59 1231.60,314.42 1232.54,315.33"/>
    </edge>
    <edge id=":0_16" function="internal">
        <lane id=":0_16_0" index="0" speed="13.89" length="11.08" shape="1232.54,315.33 1233.92,316.67 1234.08,320.34 1232.08,325.44"/>
    </edge>
    <edge id=":0_11" function="internal">
        <lane id=":0_11_0" index="0" speed="13.89" length="5.70" shape="1229.17,323.90 1229.75,322.31 1229.58,321.16 1228.66,320.46 1226.99,320.19"/>
    </edge>
    <edge id=":0_12" function="internal">
        <lane id=":0_12_0" index="0" speed="13.89" length="21.05" shape="1229.17,323.90 1238.91,305.24"/>
    </edge>
    <edge id=":0_13" function="internal">
        <lane id=":0_13_0" index="0" speed="13.89" length="8.67" shape="1229.17,323.90 1232.11,319.47 1234.58,317.21"/>
    </edge>
    <edge id=":0_17" function="internal">
        <lane id=":0_17_0" index="0" speed="13.89" length="10.38" shape="1234.58,317.21 1235.58,316.29 1239.58,314.37 1244.12,313.71"/>
    </edge>
    <edge id=":1_0" function="internal">
        <lane id=":1_0_0" index="0" speed="13.89" length="0.10" shape="1135.56,318.27 1135.56,318.27"/>
        <lane id=":1_0_1" index="1" speed="13.89" length="0.10" shape="1135.63,314.97 1135.63,314.97"/>
    </edge>
    <edge id=":1_2" function="internal">
        <lane id=":1_2_0" index="0" speed="13.89" length="0.10" shape="1135.76,308.37 1135.76,308.37"/>
        <lane id=":1_2_1" index="1" speed="13.89" length="0.10" shape="1135.69,311.67 1135.69,311.67"/>
    </edge>
    <edge id=":2_0" function="internal">
        <lane id=":2_0_0" index="0" speed="13.89" length="0.10" shape="1343.45,319.56 1343.45,319.56"/>
        <lane id=":2_0_1" index="1" speed="13.89" length="0.10" shape="1343.42,316.26 1343.42,316.26"/>
    </edge>
    <edge id=":2_2" function="internal">
        <lane id=":2_2_0" index="0" speed="13.89" length="0.10" shape="1343.37,309.66 1343.37,309.66"/>
        <lane id=":2_2_1" index="1" speed="13.89" length="0.10" shape="1343.40,312.96 1343.40,312.96"/>
    </edge>
    <edge id=":3_0" function="internal">
        <lane id=":3_0_0" index="0" speed="13.89" length="0.10" shape="1288.26,216.72 1288.26,216.72"/>
    </edge>
    <edge id=":3_1" function="internal">
        <lane id=":3_1_0" index="0" speed="13.89" length="0.10" shape="1285.32,215.20 1285.32,215.20"/>
    </edge>
    <edge id=":4_0" function="internal">
        <lane id=":4_0_0" index="0" speed="13.89" length="0.10" shape="1174.05,435.12 1174.05,435.12"/>
    </edge>
    <edge id=":4_1" function="internal">
        <lane id=":4_1_0" index="0" speed="13.89" length="0.10" shape="1171.13,433.58 1171.13,433.58"/>
    </edge>

    <edge id="1i" from="0" to="1" priority="1">
        <lane id="1i_0" index="0" speed="13.89" length="91.45" shape="1226.99,320.19 1135.56,318.27"/>
        <lane id="1i_1" index="1" speed="13.89" length="91.45" shape="1227.06,316.89 1135.63,314.97"/>
    </edge>
    <edge id="1o" from="1" to="0" priority="1">
        <lane id="1o_0" index="0" speed="13.89" length="91.45" shape="1135.76,308.37 1227.20,310.29"/>
        <lane id="1o_1" index="1" speed="13.89" length="91.45" shape="1135.69,311.67 1227.13,313.59"/>
    </edge>
    <edge id="2i" from="0" to="2" priority="1">
        <lane id="2i_0" index="0" speed="13.89" length="99.28" shape="1244.09,310.41 1343.37,309.66"/>
        <lane id="2i_1" index="1" speed="13.89" length="99.28" shape="1244.12,313.71 1343.40,312.96"/>
    </edge>
    <edge id="2o" from="2" to="0" priority="1">
        <lane id="2o_0" index="0" speed="13.89" length="99.28" shape="1343.45,319.56 1244.17,320.31"/>
        <lane id="2o_1" index="1" speed="13.89" length="99.28" shape="1343.42,316.26 1244.14,317.01"/>
    </edge>
    <edge id="3i" from="3" to="0" priority="1">
        <lane id="3i_0" index="0" speed="13.89" length="101.29" shape="1288.26,216.72 1241.85,306.75"/>
    </edge>
    <edge id="3o" from="0" to="3" priority="1">
        <lane id="3o_0" index="0" speed="13.89" length="101.29" shape="1238.91,305.24 1285.32,215.20"/>
    </edge>
    <edge id="4i" from="4" to="0" priority="1">
        <lane id="4i_0" index="0" speed="13.89" length="124.09" shape="1171.13,433.58 1229.17,323.90"/>
    </edge>
    <edge id="4o" from="0" to="4" priority="1">
        <lane id="4o_0" index="0" speed="13.89" length="124.09" shape="1232.08,325.44 1174.05,435.12"/>
    </edge>
    <edge id="51i" from="51" to="1" priority="1">
        <lane id="51i_0" index="0" speed="13.89" length="9.44" shape="1126.32,308.17 1135.76,308.37"/>
        <lane id="51i_1" index="1" speed="13.89" length="9.44" shape="1126.25,311.47 1135.69,311.67"/>
    </edge>
    <edge id="51o" from="1" to="51" priority="1">
        <lane id="51o_0" index="0" speed="13.89" length="9.44" shape="1135.56,318.27 1126.12,318.07"/>
        <lane id="51o_1" index="1" speed="13.89" length="9.44" shape="1135.63,314.97 1126.19,314.77"/>
    </edge>
    <edge id="52i" from="52" to="2" priority="1">
        <lane id="52i_0" index="0" speed="13.89" length="10.82" shape="1354.27,319.48 1343.45,319.56"/>
        <lane id="52i_1" index="1" speed="13.89" length="10.82" shape="1354.24,316.18 1343.42,316.26"/>
    </edge>
    <edge id="52o" from="2" to="52" priority="1">
        <lane id="52o_0" index="0" speed="13.89" length="10.82" shape="1343.37,309.66 1354.19,309.58"/>
        <lane id="52o_1" index="1" speed="13.89" length="10.82" shape="1343.40,312.96 1354.22,312.88"/>
    </edge>
    <edge id="53i" from="3" to="53" priority="1">
        <lane id="53i_0" index="0" speed="13.89" length="12.89" shape="1285.32,215.20 1291.23,203.74"/>
    </edge>
    <edge id="53o" from="53" to="3" priority="1">
        <lane id="53o_0" index="0" speed="13.89" length="12.89" shape="1294.17,205.26 1288.26,216.72"/>
    </edge>
    <edge id="54i" from="4" to="54" priority="1">
        <lane id="54i_0" index="0" speed="13.89" length="14.27" shape="1174.05,435.12 1167.38,447.73"/>
    </edge>
    <edge id="54o" from="54" to="4" priority="1">
        <lane id="54o_0" index="0" speed="13.89" length="14.27" shape="1164.46,446.19 1171.13,433.58"/>
    </edge>

    <tlLogic id="0" type="static" programID="0" offset="0">
        <phase duration="33" state="GGGgrrrGGGgrrr"/>
        <phase duration="3" state="yyygrrryyygrrr"/>
        <phase duration="6" state="rrrGrrrrrrGrrr"/>
        <phase duration="3" state="rrryrrrrrryrrr"/>
        <phase duration="33" state="rrrrGGgrrrrGGg"/>
        <phase duration="3" state="rrrryygrrrryyg"/>
        <phase duration="6" state="rrrrrrGrrrrrrG"/>
        <phase duration="3" state="rrrrrryrrrrrry"/>
    </tlLogic>

    <junction id="0" type="traffic_light" x="1235.52" y="315.42" incLanes="2o_0 2o_1 3i_0 1o_0 1o_1 4i_0" intLanes=":0_0_0 :0_1_0 :0_1_1 :0_14_0 :0_4_0 :0_5_0 :0_15_0 :0_7_0 :0_8_0 :0_8_1 :0_16_0 :0_11_0 :0_12_0 :0_17_0" shape="1244.18,321.91 1244.08,308.81 1243.27,307.48 1237.49,304.51 1227.23,308.69 1226.96,321.79 1227.75,323.15 1233.50,326.19">
        <request index="0" response="00000000000000" foes="00010000100000" cont="0"/>
        <request index="1" response="00000000000000" foes="11110001100000" cont="0"/>
        <request index="2" response="00000000000000" foes="11110001100000" cont="0"/>
        <request index="3" response="00001110000000" foes="11001111100000" cont="1"/>
        <request index="4" response="00001100000000" foes="10001100000000" cont="0"/>
        <request index="5" response="00011100001111" foes="10011100001111" cont="0"/>
        <request index="6" response="01111100001110" foes="01111100001110" cont="1"/>
        <request index="7" response="00000000000000" foes="01000000001000" cont="0"/>
        <request index="8" response="00000000000000" foes="11000001111000" cont="0"/>
        <request index="9" response="00000000000000" foes="11000001111000" cont="0"/>
        <request index="10" response="00000000000111" foes="11000001100111" cont="1"/>
        <request index="11" response="00000000000110" foes="00000001000110" cont="0"/>
        <request index="12" response="00011110001110" foes="00011111001110" cont="0"/>
        <request index="13" response="00011100111110" foes="00011100111110" cont="1"/>
    </junction>
    <junction id="1" type="priority" x="1135.66" y="313.32" incLanes="1i_0 1i_1 51i_0 51i_1" intLanes=":1_0_0 :1_0_1 :1_2_0 :1_2_1" shape="1135.52,319.87 1135.80,306.77 1135.52,319.87">
        <request index="0" response="0000" foes="0000" cont="0"/>
        <request index="1" response="0000" foes="0000" cont="0"/>
        <request index="2" response="0000" foes="0000" cont="0"/>
        <request index="3" response="0000" foes="0000" cont="0"/>
    </junction>
    <junction id="2" type="priority" x="1343.41" y="314.61" incLanes="52i_0 52i_1 2i_0 2i_1" intLanes=":2_0_0 :2_0_1 :2_2_0 :2_2_1" shape="1343.46,321.16 1343.36,308.06 1343.46,321.16">
        <request index="0" response="0000" foes="0000" cont="0"/>
        <request index="1" response="0000" foes="0000" cont="0"/>
        <request index="2" response="0000" foes="0000" cont="0"/>
        <request index="3" response="0000" foes="0000" cont="0"/>
    </junction>
    <junction id="2268121004" type="dead_end" x="724.38" y="2944.33" incLanes="" intLanes="" shape="724.38,2944.33"/>
    <junction id="2268508996" type="dead_end" x="2166.20" y="2634.67" incLanes="" intLanes="" shape="2166.20,2634.67"/>
    <junction id="3" type="priority" x="1286.79" y="215.96" incLanes="53o_0 3o_0" intLanes=":3_0_0 :3_1_0" shape="1289.68,217.45 1283.90,214.47 1289.68,217.45">
        <request index="0" response="00" foes="00" cont="0"/>
        <request index="1" response="00" foes="00" cont="0"/>
    </junction>
    <junction id="325156509" type="dead_end" x="2146.28" y="2497.56" incLanes="" intLanes="" shape="2146.28,2497.56"/>
    <junction id="4" type="priority" x="1172.59" y="434.35" incLanes="4o_0 54o_0" intLanes=":4_0_0 :4_1_0" shape="1175.46,435.87 1169.72,432.83 1175.46,435.87">
        <request index="0" response="00" foes="00" cont="0"/>
        <request index="1" response="00" foes="00" cont="0"/>
    </junction>
    <junction id="51" type="dead_end" x="1126.22" y="313.12" incLanes="51o_0 51o_1" intLanes="" shape="1126.22,313.07 1126.08,319.67 1126.22,313.17"/>
    <junction id="52" type="dead_end" x="1354.23" y="314.53" incLanes="52o_0 52o_1" intLanes="" shape="1354.23,314.58 1354.18,307.98 1354.23,314.48"/>
    <junction id="53" type="dead_end" x="1292.70" y="204.50" incLanes="53i_0" intLanes="" shape="1292.74,204.52 1289.81,203.01 1292.66,204.48"/>
    <junction id="54" type="dead_end" x="1165.92" y="446.96" incLanes="54i_0" intLanes="" shape="1165.88,446.94 1168.79,448.48 1165.96,446.98"/>

    <junction id=":0_14_0" type="internal" x="1238.43" y="315.27" incLanes=":0_3_0 1o_0 1o_1" intLanes=":0_5_0 :0_6_0 :0_7_0 :0_8_0 :0_8_1 :0_12_0 :0_13_0"/>
    <junction id=":0_15_0" type="internal" x="1236.30" y="313.70" incLanes=":0_6_0 4i_0" intLanes=":0_1_0 :0_1_1 :0_3_0 :0_8_0 :0_8_1 :0_10_0 :0_11_0 :0_12_0"/>
    <junction id=":0_16_0" type="internal" x="1232.54" y="315.33" incLanes=":0_10_0 2o_0 2o_1" intLanes=":0_0_0 :0_1_0 :0_1_1 :0_5_0 :0_6_0 :0_12_0 :0_13_0"/>
    <junction id=":0_17_0" type="internal" x="1234.58" y="317.21" incLanes=":0_13_0 3i_0" intLanes=":0_1_0 :0_1_1 :0_3_0 :0_4_0 :0_5_0 :0_8_0 :0_8_1 :0_10_0"/>

    <connection from="1i" to="51o" fromLane="0" toLane="0" via=":1_0_0" dir="s" state="M"/>
    <connection from="1i" to="51o" fromLane="1" toLane="1" via=":1_0_1" dir="s" state="M"/>
    <connection from="1o" to="3o" fromLane="0" toLane="0" via=":0_7_0" tl="0" linkIndex="7" dir="r" state="o"/>
    <connection from="1o" to="2i" fromLane="0" toLane="0" via=":0_8_0" tl="0" linkIndex="8" dir="s" state="o"/>
    <connection from="1o" to="2i" fromLane="1" toLane="1" via=":0_8_1" tl="0" linkIndex="9" dir="s" state="o"/>
    <connection from="1o" to="4o" fromLane="1" toLane="0" via=":0_10_0" tl="0" linkIndex="10" dir="l" state="o"/>
    <connection from="2i" to="52o" fromLane="0" toLane="0" via=":2_2_0" dir="s" state="M"/>
    <connection from="2i" to="52o" fromLane="1" toLane="1" via=":2_2_1" dir="s" state="M"/>
    <connection from="2o" to="4o" fromLane="0" toLane="0" via=":0_0_0" tl="0" linkIndex="0" dir="r" state="o"/>
    <connection from="2o" to="1i" fromLane="0" toLane="0" via=":0_1_0" tl="0" linkIndex="1" dir="s" state="o"/>
    <connection from="2o" to="1i" fromLane="1" toLane="1" via=":0_1_1" tl="0" linkIndex="2" dir="s" state="o"/>
    <connection from="2o" to="3o" fromLane="1" toLane="0" via=":0_3_0" tl="0" linkIndex="3" dir="l" state="o"/>
    <connection from="3i" to="2i" fromLane="0" toLane="0" via=":0_4_0" tl="0" linkIndex="4" dir="r" state="o"/>
    <connection from="3i" to="4o" fromLane="0" toLane="0" via=":0_5_0" tl="0" linkIndex="5" dir="s" state="o"/>
    <connection from="3i" to="1i" fromLane="0" toLane="1" via=":0_6_0" tl="0" linkIndex="6" dir="l" state="o"/>
    <connection from="3o" to="53i" fromLane="0" toLane="0" via=":3_1_0" dir="s" state="M"/>
    <connection from="4i" to="1i" fromLane="0" toLane="0" via=":0_11_0" tl="0" linkIndex="11" dir="r" state="o"/>
    <connection from="4i" to="3o" fromLane="0" toLane="0" via=":0_12_0" tl="0" linkIndex="12" dir="s" state="o"/>
    <connection from="4i" to="2i" fromLane="0" toLane="1" via=":0_13_0" tl="0" linkIndex="13" dir="l" state="o"/>
    <connection from="4o" to="54i" fromLane="0" toLane="0" via=":4_0_0" dir="s" state="M"/>
    <connection from="51i" to="1o" fromLane="0" toLane="0" via=":1_2_0" dir="s" state="M"/>
    <connection from="51i" to="1o" fromLane="1" toLane="1" via=":1_2_1" dir="s" state="M"/>
    <connection from="52i" to="2o" fromLane="0" toLane="0" via=":2_0_0" dir="s" state="M"/>
    <connection from="52i" to="2o" fromLane="1" toLane="1" via=":2_0_1" dir="s" state="M"/>
    <connection from="53o" to="3i" fromLane="0" toLane="0" via=":3_0_0" dir="s" state="M"/>
    <connection from="54o" to="4i" fromLane="0" toLane="0" via=":4_1_0" dir="s" state="M"/>

    <connection from=":0_0" to="4o" fromLane="0" toLane="0" dir="r" state="M"/>
    <connection from=":0_1" to="1i" fromLane="0" toLane="0" dir="s" state="M"/>
    <connection from=":0_1" to="1i" fromLane="1" toLane="1" dir="s" state="M"/>
    <connection from=":0_3" to="3o" fromLane="0" toLane="0" via=":0_14_0" dir="l" state="m"/>
    <connection from=":0_14" to="3o" fromLane="0" toLane="0" dir="l" state="M"/>
    <connection from=":0_4" to="2i" fromLane="0" toLane="0" dir="r" state="M"/>
    <connection from=":0_5" to="4o" fromLane="0" toLane="0" dir="s" state="M"/>
    <connection from=":0_6" to="1i" fromLane="0" toLane="1" via=":0_15_0" dir="l" state="m"/>
    <connection from=":0_15" to="1i" fromLane="0" toLane="1" dir="l" state="M"/>
    <connection from=":0_7" to="3o" fromLane="0" toLane="0" dir="r" state="M"/>
    <connection from=":0_8" to="2i" fromLane="0" toLane="0" dir="s" state="M"/>
    <connection from=":0_8" to="2i" fromLane="1" toLane="1" dir="s" state="M"/>
    <connection from=":0_10" to="4o" fromLane="0" toLane="0" via=":0_16_0" dir="l" state="m"/>
    <connection from=":0_16" to="4o" fromLane="0" toLane="0" dir="l" state="M"/>
    <connection from=":0_11" to="1i" fromLane="0" toLane="0" dir="r" state="M"/>
    <connection from=":0_12" to="3o" fromLane="0" toLane="0" dir="s" state="M"/>
    <connection from=":0_13" to="2i" fromLane="0" toLane="1" via=":0_17_0" dir="l" state="m"/>
    <connection from=":0_17" to="2i" fromLane="0" toLane="1" dir="l" state="M"/>
    <connection from=":1_0" to="51o" fromLane="0" toLane="0" dir="s" state="M"/>
    <connection from=":1_0" to="51o" fromLane="1" toLane="1" dir="s" state="M"/>
    <connection from=":1_2" to="1o" fromLane="0" toLane="0" dir="s" state="M"/>
    <connection from=":1_2" to="1o" fromLane="1" toLane="1" dir="s" state="M"/>
    <connection from=":2_0" to="2o" fromLane="0" toLane="0" dir="s" state="M"/>
    <connection from=":2_0" to="2o" fromLane="1" toLane="1" dir="s" state="M"/>
    <connection from=":2_2" to="52o" fromLane="0" toLane="0" dir="s" state="M"/>
    <connection from=":2_2" to="52o" fromLane="1" toLane="1" dir="s" state="M"/>
    <connection from=":3_0" to="3i" fromLane="0" toLane="0" dir="s" state="M"/>
    <connection from=":3_1" to="53i" fromLane="0" toLane="0" dir="s" state="M"/>
    <connection from=":4_0" to="54i" fromLane="0" toLane="0" dir="s" state="M"/>
    <connection from=":4_1" to="4i" fromLane="0" toLane="0" dir="s" state="M"/>

</net>
