<?xml version="1.0" encoding="UTF-8"?>

<!-- generated on Sat Jan 27 09:46:40 2018 by SUMO netconvert Version 0.32.0
<?xml version="1.0" encoding="UTF-8"?>

<configuration xmlns:xsi="http://www.w3.org/2001/XMLSchema-instance" xsi:noNamespaceSchemaLocation="http://sumo.dlr.de/xsd/netconvertConfiguration.xsd">

    <input>
        <osm-files value="map.osm"/>
    </input>

    <output>
        <output-file value="map.net.xml"/>
    </output>

    <projection>
        <proj.utm value="true"/>
    </projection>

</configuration>
-->

<net version="0.27" xmlns:xsi="http://www.w3.org/2001/XMLSchema-instance" xsi:noNamespaceSchemaLocation="http://sumo.dlr.de/xsd/net_file.xsd">

    <location netOffset="-785963.86,-1434478.66" convBoundary="0.00,0.00,1260.04,1258.39" origBoundary="77.635882,12.962565,77.647490,12.973918" projParameter="+proj=utm +zone=43 +ellps=WGS84 +datum=WGS84 +units=m +no_defs"/>

    <type id="highway.bridleway" priority="1" numLanes="1" speed="2.78" allow="pedestrian" oneway="1" width="2.00"/>
    <type id="highway.bus_guideway" priority="1" numLanes="1" speed="8.33" allow="bus" oneway="1"/>
    <type id="highway.cycleway" priority="1" numLanes="1" speed="5.56" allow="bicycle" oneway="0" width="1.00"/>
    <type id="highway.footway" priority="1" numLanes="1" speed="2.78" allow="pedestrian" oneway="1" width="2.00"/>
    <type id="highway.ford" priority="1" numLanes="1" speed="2.78" allow="army" oneway="0"/>
    <type id="highway.living_street" priority="3" numLanes="1" speed="2.78" disallow="tram rail_urban rail rail_electric ship" oneway="0"/>
    <type id="highway.motorway" priority="13" numLanes="2" speed="44.44" allow="private emergency authority army vip passenger hov taxi bus coach delivery truck trailer motorcycle evehicle custom1 custom2" oneway="1"/>
    <type id="highway.motorway_link" priority="12" numLanes="1" speed="22.22" allow="private emergency authority army vip passenger hov taxi bus coach delivery truck trailer motorcycle evehicle custom1 custom2" oneway="1"/>
    <type id="highway.path" priority="1" numLanes="1" speed="2.78" allow="bicycle pedestrian" oneway="1" width="2.00"/>
    <type id="highway.pedestrian" priority="1" numLanes="1" speed="2.78" allow="pedestrian" oneway="1" width="2.00"/>
    <type id="highway.primary" priority="9" numLanes="2" speed="27.78" disallow="tram rail_urban rail rail_electric ship" oneway="0"/>
    <type id="highway.primary_link" priority="8" numLanes="1" speed="22.22" disallow="tram rail_urban rail rail_electric ship" oneway="0"/>
    <type id="highway.raceway" priority="14" numLanes="2" speed="83.33" allow="vip" oneway="0"/>
    <type id="highway.residential" priority="4" numLanes="1" speed="13.89" disallow="tram rail_urban rail rail_electric ship" oneway="0"/>
    <type id="highway.secondary" priority="7" numLanes="2" speed="27.78" disallow="tram rail_urban rail rail_electric ship" oneway="0"/>
    <type id="highway.secondary_link" priority="6" numLanes="1" speed="22.22" disallow="tram rail_urban rail rail_electric ship" oneway="0"/>
    <type id="highway.service" priority="2" numLanes="1" speed="5.56" allow="delivery bicycle pedestrian" oneway="0"/>
    <type id="highway.services" priority="1" numLanes="1" speed="8.33" disallow="tram rail_urban rail rail_electric ship" oneway="0"/>
    <type id="highway.stairs" priority="1" numLanes="1" speed="1.39" allow="pedestrian" oneway="1" width="2.00"/>
    <type id="highway.step" priority="1" numLanes="1" speed="1.39" allow="pedestrian" oneway="1" width="2.00"/>
    <type id="highway.steps" priority="1" numLanes="1" speed="1.39" allow="pedestrian" oneway="1" width="2.00"/>
    <type id="highway.tertiary" priority="6" numLanes="1" speed="22.22" disallow="tram rail_urban rail rail_electric ship" oneway="0"/>
    <type id="highway.tertiary_link" priority="5" numLanes="1" speed="22.22" disallow="tram rail_urban rail rail_electric ship" oneway="0"/>
    <type id="highway.track" priority="1" numLanes="1" speed="5.56" disallow="tram rail_urban rail rail_electric ship" oneway="0"/>
    <type id="highway.trunk" priority="11" numLanes="2" speed="27.78" disallow="tram rail_urban rail rail_electric bicycle pedestrian ship" oneway="0"/>
    <type id="highway.trunk_link" priority="10" numLanes="1" speed="22.22" disallow="tram rail_urban rail rail_electric bicycle pedestrian ship" oneway="0"/>
    <type id="highway.unclassified" priority="5" numLanes="1" speed="13.89" disallow="tram rail_urban rail rail_electric ship" oneway="0"/>
    <type id="highway.unsurfaced" priority="1" numLanes="1" speed="8.33" disallow="tram rail_urban rail rail_electric ship" oneway="0"/>
    <type id="railway.light_rail" priority="15" numLanes="1" speed="27.78" allow="rail_urban" oneway="1"/>
    <type id="railway.preserved" priority="15" numLanes="1" speed="27.78" allow="rail" oneway="1"/>
    <type id="railway.rail" priority="15" numLanes="1" speed="83.33" allow="rail rail_electric" oneway="1"/>
    <type id="railway.subway" priority="15" numLanes="1" speed="27.78" allow="rail_urban" oneway="1"/>
    <type id="railway.tram" priority="15" numLanes="1" speed="13.89" allow="tram" oneway="1"/>

    <edge id=":253179991_0" function="internal">
        <lane id=":253179991_0_0" index="0" disallow="tram rail_urban rail rail_electric ship" speed="13.89" length="4.82" shape="1236.96,934.38 1238.17,935.25 1238.55,936.09 1238.11,936.90 1236.84,937.68"/>
    </edge>
    <edge id=":269700181_0" function="internal">
        <lane id=":269700181_0_0" index="0" disallow="tram rail_urban rail rail_electric ship" speed="13.89" length="4.82" shape="4.17,742.28 3.20,741.16 3.02,740.25 3.63,739.57 5.04,739.09"/>
    </edge>
    <edge id=":269700182_0" function="internal">
        <lane id=":269700182_0_0" index="0" disallow="tram rail_urban rail rail_electric ship" speed="22.22" length="4.82" shape="1.05,798.86 -0.01,797.82 -0.27,796.93 0.29,796.19 1.66,795.61"/>
    </edge>
    <edge id=":269700183_0" function="internal">
        <lane id=":269700183_0_0" index="0" disallow="tram rail_urban rail rail_electric ship" speed="13.89" length="4.82" shape="-0.07,862.66 -1.27,861.78 -1.65,860.94 -1.20,860.13 0.07,859.36"/>
    </edge>
    <edge id=":286681977_0" function="internal">
        <lane id=":286681977_0_0" index="0" disallow="tram rail_urban rail rail_electric ship" speed="13.89" length="4.82" shape="836.03,680.21 836.89,679.00 837.73,678.61 838.54,679.05 839.33,680.31"/>
    </edge>
    <edge id=":286681987_0" function="internal">
        <lane id=":286681987_0_0" index="0" disallow="tram rail_urban rail rail_electric ship" speed="13.89" length="9.64" shape="838.01,720.37 837.56,730.00"/>
    </edge>
    <edge id=":286681987_1" function="internal">
        <lane id=":286681987_1_0" index="0" disallow="tram rail_urban rail rail_electric ship" speed="13.89" length="5.38" shape="838.01,720.37 837.51,723.19 836.23,725.15 836.08,725.24"/>
    </edge>
    <edge id=":286681987_2" function="internal">
        <lane id=":286681987_2_0" index="0" disallow="tram rail_urban rail rail_electric ship" speed="13.89" length="2.41" shape="838.01,720.37 837.15,721.58 836.31,721.97"/>
    </edge>
    <edge id=":286681987_9" function="internal">
        <lane id=":286681987_9_0" index="0" speed="13.89" length="5.03" shape="836.08,725.24 834.17,726.27 831.32,726.53"/>
    </edge>
    <edge id=":286681987_10" function="internal">
        <lane id=":286681987_10_0" index="0" speed="13.89" length="2.41" shape="836.31,721.97 835.50,721.53 834.71,720.26"/>
    </edge>
    <edge id=":286681987_3" function="internal">
        <lane id=":286681987_3_0" index="0" disallow="tram rail_urban rail rail_electric ship" speed="13.89" length="5.02" shape="831.49,723.23 832.86,723.11 833.85,722.57 834.47,721.62 834.71,720.26"/>
    </edge>
    <edge id=":286681987_4" function="internal">
        <lane id=":286681987_4_0" index="0" disallow="tram rail_urban rail rail_electric ship" speed="13.89" length="10.39" shape="831.49,723.23 834.29,723.78 836.24,725.09 837.33,727.16 837.56,730.00"/>
    </edge>
    <edge id=":286681987_5" function="internal">
        <lane id=":286681987_5_0" index="0" disallow="tram rail_urban rail rail_electric ship" speed="13.89" length="4.82" shape="831.49,723.23 832.68,724.12 833.05,724.96 832.60,725.77 831.32,726.53"/>
    </edge>
    <edge id=":286681987_6" function="internal">
        <lane id=":286681987_6_0" index="0" disallow="tram rail_urban rail rail_electric ship" speed="13.89" length="5.03" shape="834.26,729.80 834.15,728.43 833.62,727.43 832.68,726.79 831.32,726.53"/>
    </edge>
    <edge id=":286681987_7" function="internal">
        <lane id=":286681987_7_0" index="0" disallow="tram rail_urban rail rail_electric ship" speed="13.89" length="9.55" shape="834.26,729.80 834.71,720.26"/>
    </edge>
    <edge id=":286681987_8" function="internal">
        <lane id=":286681987_8_0" index="0" disallow="tram rail_urban rail rail_electric ship" speed="13.89" length="2.41" shape="834.26,729.80 835.16,728.61 836.01,728.25"/>
    </edge>
    <edge id=":286681987_11" function="internal">
        <lane id=":286681987_11_0" index="0" speed="13.89" length="2.41" shape="836.01,728.25 836.81,728.72 837.56,730.00"/>
    </edge>
    <edge id=":286681996_0" function="internal">
        <lane id=":286681996_0_0" index="0" disallow="tram rail_urban rail rail_electric ship" speed="13.89" length="9.39" shape="834.12,785.95 833.65,795.33"/>
    </edge>
    <edge id=":286681996_1" function="internal">
        <lane id=":286681996_1_0" index="0" disallow="tram rail_urban rail rail_electric ship" speed="13.89" length="5.14" shape="834.12,785.95 833.55,788.70 832.24,790.62"/>
    </edge>
    <edge id=":286681996_2" function="internal">
        <lane id=":286681996_2_0" index="0" disallow="tram rail_urban rail rail_electric ship" speed="13.89" length="2.41" shape="834.12,785.95 833.22,787.13 832.37,787.49"/>
    </edge>
    <edge id=":286681996_9" function="internal">
        <lane id=":286681996_9_0" index="0" speed="13.89" length="5.14" shape="832.24,790.62 830.19,791.71 827.39,791.96"/>
    </edge>
    <edge id=":286681996_10" function="internal">
        <lane id=":286681996_10_0" index="0" speed="13.89" length="2.41" shape="832.37,787.49 831.57,787.03 830.82,785.74"/>
    </edge>
    <edge id=":286681996_3" function="internal">
        <lane id=":286681996_3_0" index="0" disallow="tram rail_urban rail rail_electric ship" speed="13.89" length="4.99" shape="827.56,788.66 828.91,788.54 829.91,788.01 830.55,787.08 830.82,785.74"/>
    </edge>
    <edge id=":286681996_4" function="internal">
        <lane id=":286681996_4_0" index="0" disallow="tram rail_urban rail rail_electric ship" speed="13.89" length="10.27" shape="827.56,788.66 830.31,789.20 832.25,790.49 833.36,792.53 833.65,795.33"/>
    </edge>
    <edge id=":286681996_5" function="internal">
        <lane id=":286681996_5_0" index="0" disallow="tram rail_urban rail rail_electric ship" speed="13.89" length="4.82" shape="827.56,788.66 828.75,789.55 829.12,790.40 828.66,791.20 827.39,791.96"/>
    </edge>
    <edge id=":286681996_6" function="internal">
        <lane id=":286681996_6_0" index="0" disallow="tram rail_urban rail rail_electric ship" speed="13.89" length="4.99" shape="830.35,795.20 830.21,793.84 829.67,792.85 828.73,792.22 827.39,791.96"/>
    </edge>
    <edge id=":286681996_7" function="internal">
        <lane id=":286681996_7_0" index="0" disallow="tram rail_urban rail rail_electric ship" speed="13.89" length="9.46" shape="830.35,795.20 830.82,785.74"/>
    </edge>
    <edge id=":286681996_8" function="internal">
        <lane id=":286681996_8_0" index="0" disallow="tram rail_urban rail rail_electric ship" speed="13.89" length="2.41" shape="830.35,795.20 831.22,793.99 832.06,793.61"/>
    </edge>
    <edge id=":286681996_11" function="internal">
        <lane id=":286681996_11_0" index="0" speed="13.89" length="2.41" shape="832.06,793.61 832.87,794.06 833.65,795.33"/>
    </edge>
    <edge id=":286682015_0" function="internal">
        <lane id=":286682015_0_0" index="0" disallow="tram rail_urban rail rail_electric ship" speed="22.22" length="9.50" shape="834.14,859.85 824.66,859.35"/>
    </edge>
    <edge id=":286682015_1" function="internal">
        <lane id=":286682015_1_0" index="0" disallow="tram rail_urban rail rail_electric ship" speed="18.05" length="5.25" shape="834.14,859.85 831.39,859.30 829.46,858.00 829.41,857.90"/>
    </edge>
    <edge id=":286682015_2" function="internal">
        <lane id=":286682015_2_0" index="0" disallow="tram rail_urban rail rail_electric ship" speed="22.22" length="2.41" shape="834.14,859.85 832.95,858.96 832.58,858.12"/>
    </edge>
    <edge id=":286682015_9" function="internal">
        <lane id=":286682015_9_0" index="0" speed="18.05" length="5.08" shape="829.41,857.90 828.35,855.93 828.07,853.10"/>
    </edge>
    <edge id=":286682015_10" function="internal">
        <lane id=":286682015_10_0" index="0" speed="22.22" length="2.41" shape="832.58,858.12 833.04,857.31 834.32,856.55"/>
    </edge>
    <edge id=":286682015_3" function="internal">
        <lane id=":286682015_3_0" index="0" disallow="tram rail_urban rail rail_electric ship" speed="18.05" length="5.05" shape="831.37,853.23 831.50,854.62 832.04,855.64 832.98,856.29 834.32,856.55"/>
    </edge>
    <edge id=":286682015_4" function="internal">
        <lane id=":286682015_4_0" index="0" disallow="tram rail_urban rail rail_electric ship" speed="18.05" length="10.39" shape="831.37,853.23 830.85,856.04 829.56,857.99 827.50,859.10 824.66,859.35"/>
    </edge>
    <edge id=":286682015_5" function="internal">
        <lane id=":286682015_5_0" index="0" disallow="tram rail_urban rail rail_electric ship" speed="13.89" length="4.82" shape="831.37,853.23 830.49,854.44 829.65,854.82 828.84,854.37 828.07,853.10"/>
    </edge>
    <edge id=":286682015_6" function="internal">
        <lane id=":286682015_6_0" index="0" disallow="tram rail_urban rail rail_electric ship" speed="18.05" length="5.02" shape="824.83,856.06 826.20,855.93 827.20,855.40 827.82,854.46 828.07,853.10"/>
    </edge>
    <edge id=":286682015_7" function="internal">
        <lane id=":286682015_7_0" index="0" disallow="tram rail_urban rail rail_electric ship" speed="22.22" length="9.50" shape="824.83,856.06 834.32,856.55"/>
    </edge>
    <edge id=":286682015_8" function="internal">
        <lane id=":286682015_8_0" index="0" disallow="tram rail_urban rail rail_electric ship" speed="22.22" length="2.41" shape="824.83,856.06 826.02,856.95 826.39,857.79"/>
    </edge>
    <edge id=":286682015_11" function="internal">
        <lane id=":286682015_11_0" index="0" speed="22.22" length="2.41" shape="826.39,857.79 825.93,858.59 824.66,859.35"/>
    </edge>
    <edge id=":287911276_0" function="internal">
        <lane id=":287911276_0_0" index="0" disallow="tram rail_urban rail rail_electric ship" speed="13.89" length="4.82" shape="401.27,1109.20 400.37,1110.38 399.52,1110.75 398.72,1110.28 397.97,1109.00"/>
    </edge>
    <edge id=":287912509_0" function="internal">
        <lane id=":287912509_0_0" index="0" disallow="tram rail_urban rail rail_electric ship" speed="22.22" length="9.64" shape="598.44,847.49 588.81,846.99"/>
    </edge>
    <edge id=":287912509_1" function="internal">
        <lane id=":287912509_1_0" index="0" disallow="tram rail_urban rail rail_electric ship" speed="25.00" length="3.01" shape="598.44,847.49 597.06,847.02 596.15,845.76"/>
    </edge>
    <edge id=":287912509_2" function="internal">
        <lane id=":287912509_2_0" index="0" disallow="tram rail_urban rail rail_electric ship" speed="22.22" length="2.41" shape="598.44,847.49 597.25,846.61 596.88,845.76"/>
    </edge>
    <edge id=":287912509_10" function="internal">
        <lane id=":287912509_10_0" index="0" speed="25.00" length="4.91" shape="596.15,845.76 595.70,843.72 595.72,840.90"/>
    </edge>
    <edge id=":287912509_11" function="internal">
        <lane id=":287912509_11_0" index="0" speed="22.22" length="2.41" shape="596.88,845.76 597.33,844.96 598.61,844.20"/>
    </edge>
    <edge id=":287912509_3" function="internal">
        <lane id=":287912509_3_0" index="0" disallow="tram rail_urban rail rail_electric ship" speed="25.00" length="5.21" shape="588.99,843.69 590.40,843.57 591.44,843.02 592.12,842.05 592.43,840.65"/>
    </edge>
    <edge id=":287912509_4" function="internal">
        <lane id=":287912509_4_0" index="0" disallow="tram rail_urban rail rail_electric ship" speed="22.22" length="9.64" shape="588.99,843.69 598.61,844.20"/>
    </edge>
    <edge id=":287912509_5" function="internal">
        <lane id=":287912509_5_0" index="0" disallow="tram rail_urban rail rail_electric ship" speed="22.22" length="2.41" shape="588.99,843.69 590.18,844.58 590.55,845.43"/>
    </edge>
    <edge id=":287912509_12" function="internal">
        <lane id=":287912509_12_0" index="0" speed="22.22" length="2.41" shape="590.55,845.43 590.09,846.23 588.81,846.99"/>
    </edge>
    <edge id=":287912509_6" function="internal">
        <lane id=":287912509_6_0" index="0" disallow="tram rail_urban rail rail_electric ship" speed="25.00" length="5.02" shape="591.72,850.27 591.62,848.90 591.10,847.89 590.17,847.26 588.81,846.99"/>
    </edge>
    <edge id=":287912509_7" function="internal">
        <lane id=":287912509_7_0" index="0" disallow="tram rail_urban rail rail_electric ship" speed="27.78" length="9.64" shape="591.72,850.27 592.43,840.65"/>
        <lane id=":287912509_7_1" index="1" disallow="tram rail_urban rail rail_electric ship" speed="27.78" length="9.64" shape="595.01,850.51 595.72,840.90"/>
    </edge>
    <edge id=":287912509_9" function="internal">
        <lane id=":287912509_9_0" index="0" disallow="tram rail_urban rail rail_electric ship" speed="25.00" length="7.99" shape="595.01,850.51 595.41,847.68 596.14,845.69 597.21,844.53 598.61,844.20"/>
    </edge>
    <edge id=":3370456516_0" function="internal">
        <lane id=":3370456516_0_0" index="0" disallow="tram rail_urban rail rail_electric ship" speed="22.22" length="4.82" shape="1260.12,878.87 1261.32,879.76 1261.69,880.61 1261.23,881.41 1259.95,882.17"/>
    </edge>
    <edge id=":3530437516_0" function="internal">
        <lane id=":3530437516_0_0" index="0" disallow="tram rail_urban rail rail_electric ship" speed="18.05" length="5.01" shape="467.22,837.42 465.85,837.51 464.84,838.01 464.19,838.94 463.90,840.28"/>
    </edge>
    <edge id=":3530437516_1" function="internal">
        <lane id=":3530437516_1_0" index="0" disallow="tram rail_urban rail rail_electric ship" speed="22.22" length="9.50" shape="467.22,837.42 457.76,836.65"/>
    </edge>
    <edge id=":3530437516_2" function="internal">
        <lane id=":3530437516_2_0" index="0" disallow="tram rail_urban rail rail_electric ship" speed="22.22" length="2.41" shape="467.22,837.42 466.06,836.50 465.71,835.65"/>
    </edge>
    <edge id=":3530437516_9" function="internal">
        <lane id=":3530437516_9_0" index="0" speed="22.22" length="2.41" shape="465.71,835.65 466.19,834.86 467.49,834.14"/>
    </edge>
    <edge id=":3530437516_3" function="internal">
        <lane id=":3530437516_3_0" index="0" disallow="tram rail_urban rail rail_electric ship" speed="22.22" length="9.50" shape="458.02,833.36 467.49,834.14"/>
    </edge>
    <edge id=":3530437516_4" function="internal">
        <lane id=":3530437516_4_0" index="0" disallow="tram rail_urban rail rail_electric ship" speed="18.05" length="5.25" shape="458.02,833.36 460.76,833.99 462.66,835.35 462.70,835.45"/>
    </edge>
    <edge id=":3530437516_5" function="internal">
        <lane id=":3530437516_5_0" index="0" disallow="tram rail_urban rail rail_electric ship" speed="22.22" length="2.41" shape="458.02,833.36 459.19,834.29 459.53,835.14"/>
    </edge>
    <edge id=":3530437516_10" function="internal">
        <lane id=":3530437516_10_0" index="0" speed="18.05" length="5.07" shape="462.70,835.45 463.70,837.45 463.90,840.28"/>
    </edge>
    <edge id=":3530437516_11" function="internal">
        <lane id=":3530437516_11_0" index="0" speed="22.22" length="2.41" shape="459.53,835.14 459.06,835.93 457.76,836.65"/>
    </edge>
    <edge id=":3530437516_6" function="internal">
        <lane id=":3530437516_6_0" index="0" disallow="tram rail_urban rail rail_electric ship" speed="18.05" length="5.04" shape="460.61,840.05 460.51,838.66 460.00,837.63 459.09,836.96 457.76,836.65"/>
    </edge>
    <edge id=":3530437516_7" function="internal">
        <lane id=":3530437516_7_0" index="0" disallow="tram rail_urban rail rail_electric ship" speed="18.05" length="10.38" shape="460.61,840.05 461.21,837.27 462.55,835.35 464.65,834.31 467.49,834.14"/>
    </edge>
    <edge id=":3530437516_8" function="internal">
        <lane id=":3530437516_8_0" index="0" disallow="tram rail_urban rail rail_electric ship" speed="13.89" length="4.82" shape="460.61,840.05 461.52,838.87 462.37,838.52 463.16,838.99 463.90,840.28"/>
    </edge>
    <edge id=":3532729011_0" function="internal">
        <lane id=":3532729011_0_0" index="0" disallow="tram rail_urban rail rail_electric ship" speed="13.89" length="9.50" shape="471.10,780.99 461.63,780.26"/>
    </edge>
    <edge id=":3532729011_1" function="internal">
        <lane id=":3532729011_1_0" index="0" disallow="tram rail_urban rail rail_electric ship" speed="13.89" length="5.23" shape="471.10,780.99 468.38,780.38 466.48,779.02 466.44,778.93"/>
    </edge>
    <edge id=":3532729011_2" function="internal">
        <lane id=":3532729011_2_0" index="0" disallow="tram rail_urban rail rail_electric ship" speed="13.89" length="2.41" shape="471.10,780.99 469.94,780.08 469.59,779.22"/>
    </edge>
    <edge id=":3532729011_9" function="internal">
        <lane id=":3532729011_9_0" index="0" speed="13.89" length="5.09" shape="466.44,778.93 465.42,776.92 465.19,774.08"/>
    </edge>
    <edge id=":3532729011_10" function="internal">
        <lane id=":3532729011_10_0" index="0" speed="13.89" length="2.41" shape="469.59,779.22 470.06,778.43 471.36,777.70"/>
    </edge>
    <edge id=":3532729011_3" function="internal">
        <lane id=":3532729011_3_0" index="0" disallow="tram rail_urban rail rail_electric ship" speed="13.89" length="5.08" shape="468.49,774.28 468.60,775.69 469.11,776.73 470.03,777.40 471.36,777.70"/>
    </edge>
    <edge id=":3532729011_4" function="internal">
        <lane id=":3532729011_4_0" index="0" disallow="tram rail_urban rail rail_electric ship" speed="13.89" length="10.42" shape="468.49,774.28 467.92,777.08 466.58,779.01 464.49,780.07 461.63,780.26"/>
    </edge>
    <edge id=":3532729011_5" function="internal">
        <lane id=":3532729011_5_0" index="0" disallow="tram rail_urban rail rail_electric ship" speed="13.89" length="4.82" shape="468.49,774.28 467.59,775.46 466.74,775.83 465.95,775.37 465.19,774.08"/>
    </edge>
    <edge id=":3532729011_6" function="internal">
        <lane id=":3532729011_6_0" index="0" disallow="tram rail_urban rail rail_electric ship" speed="13.89" length="5.02" shape="461.89,776.97 463.27,776.88 464.28,776.37 464.92,775.44 465.19,774.08"/>
    </edge>
    <edge id=":3532729011_7" function="internal">
        <lane id=":3532729011_7_0" index="0" disallow="tram rail_urban rail rail_electric ship" speed="13.89" length="9.50" shape="461.89,776.97 471.36,777.70"/>
    </edge>
    <edge id=":3532729011_8" function="internal">
        <lane id=":3532729011_8_0" index="0" disallow="tram rail_urban rail rail_electric ship" speed="13.89" length="2.41" shape="461.89,776.97 463.06,777.88 463.41,778.74"/>
    </edge>
    <edge id=":3532729011_11" function="internal">
        <lane id=":3532729011_11_0" index="0" speed="13.89" length="2.41" shape="463.41,778.74 462.93,779.53 461.63,780.26"/>
    </edge>
    <edge id=":412119404_0" function="internal">
        <lane id=":412119404_0_0" index="0" disallow="tram rail_urban rail rail_electric ship" speed="13.89" length="5.11" shape="657.54,916.56 656.12,916.70 655.07,917.23 654.40,918.16 654.12,919.49"/>
    </edge>
    <edge id=":412119404_1" function="internal">
        <lane id=":412119404_1_0" index="0" disallow="tram rail_urban rail rail_electric ship" speed="13.89" length="10.46" shape="657.54,916.56 654.71,916.05 652.75,914.75 651.65,912.66 651.43,909.79"/>
    </edge>
    <edge id=":412119404_2" function="internal">
        <lane id=":412119404_2_0" index="0" disallow="tram rail_urban rail rail_electric ship" speed="13.89" length="4.82" shape="657.54,916.56 656.34,915.69 655.95,914.85 656.40,914.04 657.66,913.26"/>
    </edge>
    <edge id=":412119404_3" function="internal">
        <lane id=":412119404_3_0" index="0" disallow="tram rail_urban rail rail_electric ship" speed="13.89" length="5.03" shape="654.72,910.01 654.83,911.39 655.36,912.39 656.30,913.01 657.66,913.26"/>
    </edge>
    <edge id=":412119404_4" function="internal">
        <lane id=":412119404_4_0" index="0" disallow="tram rail_urban rail rail_electric ship" speed="13.89" length="9.50" shape="654.72,910.01 654.12,919.49"/>
    </edge>
    <edge id=":412119404_5" function="internal">
        <lane id=":412119404_5_0" index="0" disallow="tram rail_urban rail rail_electric ship" speed="13.89" length="2.41" shape="654.72,910.01 653.82,911.19 652.97,911.55"/>
    </edge>
    <edge id=":412119404_9" function="internal">
        <lane id=":412119404_9_0" index="0" speed="13.89" length="2.41" shape="652.97,911.55 652.17,911.08 651.43,909.79"/>
    </edge>
    <edge id=":412119404_6" function="internal">
        <lane id=":412119404_6_0" index="0" disallow="tram rail_urban rail rail_electric ship" speed="13.89" length="9.51" shape="650.82,919.28 651.43,909.79"/>
    </edge>
    <edge id=":412119404_7" function="internal">
        <lane id=":412119404_7_0" index="0" disallow="tram rail_urban rail rail_electric ship" speed="13.89" length="5.22" shape="650.82,919.28 651.40,916.56 652.73,914.65 652.83,914.60"/>
    </edge>
    <edge id=":412119404_8" function="internal">
        <lane id=":412119404_8_0" index="0" disallow="tram rail_urban rail rail_electric ship" speed="13.89" length="2.41" shape="650.82,919.28 651.72,918.10 652.57,917.74"/>
    </edge>
    <edge id=":412119404_10" function="internal">
        <lane id=":412119404_10_0" index="0" speed="13.89" length="5.11" shape="652.83,914.60 654.82,913.55 657.66,913.26"/>
    </edge>
    <edge id=":412119404_11" function="internal">
        <lane id=":412119404_11_0" index="0" speed="13.89" length="2.41" shape="652.57,917.74 653.37,918.20 654.12,919.49"/>
    </edge>
    <edge id=":412119575_0" function="internal">
        <lane id=":412119575_0_0" index="0" disallow="tram rail_urban rail rail_electric ship" speed="18.05" length="5.14" shape="661.74,850.81 660.33,850.93 659.29,851.47 658.63,852.42 658.35,853.79"/>
    </edge>
    <edge id=":412119575_1" function="internal">
        <lane id=":412119575_1_0" index="0" disallow="tram rail_urban rail rail_electric ship" speed="22.22" length="9.61" shape="661.74,850.81 652.14,850.30"/>
    </edge>
    <edge id=":412119575_2" function="internal">
        <lane id=":412119575_2_0" index="0" disallow="tram rail_urban rail rail_electric ship" speed="18.05" length="5.22" shape="661.74,850.81 658.92,850.25 656.98,848.93"/>
    </edge>
    <edge id=":412119575_3" function="internal">
        <lane id=":412119575_3_0" index="0" disallow="tram rail_urban rail rail_electric ship" speed="22.22" length="2.41" shape="661.74,850.81 660.54,849.92 660.17,849.07"/>
    </edge>
    <edge id=":412119575_16" function="internal">
        <lane id=":412119575_16_0" index="0" speed="18.05" length="5.22" shape="656.98,848.93 655.91,846.84 655.72,843.97"/>
    </edge>
    <edge id=":412119575_17" function="internal">
        <lane id=":412119575_17_0" index="0" speed="22.22" length="2.41" shape="660.17,849.07 660.63,848.27 661.91,847.51"/>
    </edge>
    <edge id=":412119575_4" function="internal">
        <lane id=":412119575_4_0" index="0" disallow="tram rail_urban rail rail_electric ship" speed="18.05" length="5.03" shape="659.01,844.22 659.10,845.60 659.62,846.61 660.55,847.24 661.91,847.51"/>
    </edge>
    <edge id=":412119575_5" function="internal">
        <lane id=":412119575_5_0" index="0" disallow="tram rail_urban rail rail_electric ship" speed="13.89" length="9.60" shape="659.01,844.22 658.35,853.79"/>
    </edge>
    <edge id=":412119575_6" function="internal">
        <lane id=":412119575_6_0" index="0" disallow="tram rail_urban rail rail_electric ship" speed="18.05" length="10.42" shape="659.01,844.22 658.40,847.01 657.05,848.95 654.97,850.05 652.14,850.30"/>
    </edge>
    <edge id=":412119575_7" function="internal">
        <lane id=":412119575_7_0" index="0" disallow="tram rail_urban rail rail_electric ship" speed="13.89" length="4.82" shape="659.01,844.22 658.10,845.39 657.24,845.74 656.45,845.27 655.72,843.97"/>
    </edge>
    <edge id=":412119575_8" function="internal">
        <lane id=":412119575_8_0" index="0" disallow="tram rail_urban rail rail_electric ship" speed="18.05" length="5.18" shape="652.31,847.01 653.71,846.88 654.75,846.33 655.42,845.36 655.72,843.97"/>
    </edge>
    <edge id=":412119575_9" function="internal">
        <lane id=":412119575_9_0" index="0" disallow="tram rail_urban rail rail_electric ship" speed="22.22" length="9.61" shape="652.31,847.01 661.91,847.51"/>
    </edge>
    <edge id=":412119575_10" function="internal">
        <lane id=":412119575_10_0" index="0" disallow="tram rail_urban rail rail_electric ship" speed="18.05" length="5.19" shape="652.31,847.01 655.11,847.56 657.04,848.87"/>
    </edge>
    <edge id=":412119575_11" function="internal">
        <lane id=":412119575_11_0" index="0" disallow="tram rail_urban rail rail_electric ship" speed="22.22" length="2.41" shape="652.31,847.01 653.50,847.90 653.87,848.74"/>
    </edge>
    <edge id=":412119575_18" function="internal">