<?xml version="1.0" encoding="UTF-8"?>

<!-- generated on Sat Jan 27 09:53:44 2018 by SUMO polyconvert Version 0.32.0
<?xml version="1.0" encoding="UTF-8"?>

<configuration xmlns:xsi="http://www.w3.org/2001/XMLSchema-instance" xsi:noNamespaceSchemaLocation="http://sumo.dlr.de/xsd/polyconvertConfiguration.xsd">

    <input>
        <net-file value="map.net.xml"/>
        <osm-files value="map.osm"/>
        <type-file value="typemap.xml"/>
    </input>

    <output>
        <output-file value="map.poly.xml"/>
    </output>

    <processing>
        <poi-layer-offset value="5"/>
    </processing>

</configuration>
-->

<additional xmlns:xsi="http://www.w3.org/2001/XMLSchema-instance" xsi:noNamespaceSchemaLocation="http://sumo.dlr.de/xsd/additional_file.xsd">
    <location netOffset="-785963.86,-1434478.66" convBoundary="-0.00,-221.19,1260.04,1258.39" origBoundary="77.635882,12.960558,77.647490,12.973918" projParameter="+proj=utm +zone=43 +ellps=WGS84 +datum=WGS84 +units=m +no_defs"/>

    <poly id="313829229" type="amenity" color="237,199,199" fill="1" layer="-1.00" shape="744.83,872.47 744.35,883.43 744.12,888.58 756.36,889.12 757.07,873.00 744.83,872.47"/>
    <poly id="313829229#1" type="building" color="255,230,230" fill="1" layer="-1.00" shape="744.83,872.47 744.35,883.43 744.12,888.58 756.36,889.12 757.07,873.00 744.83,872.47"/>
    <poly id="342675783" type="building" color="255,230,230" fill="1" layer="-1.00" shape="683.64,887.67 684.59,868.93 698.07,869.61 697.11,888.35 683.64,887.67"/>
    <poly id="342675784" type="building" color="255,230,230" fill="1" layer="-1.00" shape="668.19,886.54 669.26,867.90 679.42,868.48 678.34,887.12 668.19,886.54"/>
    <poly id="342682672" type="building" color="255,230,230" fill="1" layer="-1.00" shape="699.03,889.16 699.80,871.25 708.83,871.63 708.05,889.55 699.03,889.16"/>
    <poly id="342682673" type="building" color="255,230,230" fill="1" layer="-1.00" shape="711.41,889.44 712.18,871.52 721.20,871.90 720.44,889.82 711.41,889.44"/>
    <poly id="342682674" type="building" color="255,230,230" fill="1" layer="-1.00" shape="728.00,890.18 728.76,872.27 737.79,872.65 737.03,890.57 728.00,890.18"/>
    <poly id="342682676" type="building" color="255,230,230" fill="1" layer="-1.00" shape="774.15,891.17 774.92,873.26 783.95,873.64 783.18,891.55 774.15,891.17"/>
    <poly id="342682677" type="building" color="255,230,230" fill="1" layer="-1.00" shape="788.86,891.39 789.62,873.47 798.65,873.86 797.88,891.78 788.86,891.39"/>
    <poly id="342682678" type="building" color="255,230,230" fill="1" layer="-1.00" shape="788.06,911.64 788.83,893.73 797.85,894.11 797.09,912.02 788.06,911.64"/>
    <poly id="342682679" type="building" color="255,230,230" fill="1" layer="-1.00" shape="774.39,910.05 775.16,892.13 784.19,892.51 783.41,910.44 774.39,910.05"/>
    <poly id="342682680" type="building" color="255,230,230" fill="1" layer="-1.00" shape="760.41,910.20 761.17,892.28 770.20,892.66 769.44,910.58 760.41,910.20"/>
    <poly id="342682681" type="building" color="255,230,230" fill="1" layer="-1.00" shape="745.57,909.17 746.34,891.26 755.36,891.64 754.60,909.56 745.57,909.17"/>
    <poly id="342682682" type="building" color="255,230,230" fill="1" layer="-1.00" shape="733.63,908.76 734.40,890.85 743.43,891.23 742.66,909.14 733.63,908.76"/>
    <poly id="342682683" type="building" color="255,230,230" fill="1" layer="-1.00" shape="721.11,908.63 721.87,890.72 730.90,891.10 730.14,909.01 721.11,908.63"/>
    <poly id="342682684" type="building" color="255,230,230" fill="1" layer="-1.00" shape="706.27,908.19 707.04,890.28 716.06,890.66 715.29,908.57 706.27,908.19"/>
    <poly id="342682685" type="building" color="255,230,230" fill="1" layer="-1.00" shape="691.12,907.75 691.90,889.82 700.93,890.21 700.15,908.13 691.12,907.75"/>
    <poly id="342682686" type="building" color="255,230,230" fill="1" layer="-1.00" shape="677.16,907.02 677.92,889.10 686.95,889.48 686.19,907.41 677.16,907.02"/>
    <poly id="342682687" type="building" color="255,230,230" fill="1" layer="-1.00" shape="663.18,906.87 663.95,888.96 672.98,889.34 672.21,907.26 663.18,906.87"/>
    <poly id="342683103" type="building" color="255,230,230" fill="1" layer="-1.00" shape="670.97,842.22 672.26,820.53 686.50,821.36 685.23,843.05 670.97,842.22"/>
    <poly id="342683105" type="building" color="255,230,230" fill="1" layer="-1.00" shape="690.02,843.15 691.30,821.47 705.56,822.29 704.27,843.98 690.02,843.15"/>
    <poly id="342683106" type="building" color="255,230,230" fill="1" layer="-1.00" shape="708.36,843.63 709.65,821.94 723.89,822.78 722.61,844.46 708.36,843.63"/>
    <poly id="342683107" type="building" color="255,230,230" fill="1" layer="-1.00" shape="727.58,844.12 728.86,822.43 743.11,823.26 741.83,844.95 727.58,844.12"/>
    <poly id="342683108" type="building" color="255,230,230" fill="1" layer="-1.00" shape="746.21,844.60 747.49,822.91 761.74,823.75 760.46,845.43 746.21,844.60"/>
    <poly id="342683110" type="building" color="255,230,230" fill="1" layer="-1.00" shape="765.13,845.95 766.40,824.26 780.66,825.09 779.37,846.79 765.13,845.95"/>
    <poly id="342683111" type="building" color="255,230,230" fill="1" layer="-1.00" shape="783.47,846.43 784.75,824.75 798.99,825.58 797.72,847.27 783.47,846.43"/>
    <poly id="342683112" type="building" color="255,230,230" fill="1" layer="-1.00" shape="804.66,851.87 805.95,830.17 820.20,831.00 818.92,852.70 804.66,851.87"/>
    <poly id="342683113" type="building" color="255,230,230" fill="1" layer="-1.00" shape="804.01,823.29 805.29,801.60 819.55,802.42 818.26,824.12 804.01,823.29"/>
    <poly id="342683115" type="building" color="255,230,230" fill="1" layer="-1.00" shape="692.23,818.65 693.51,796.97 707.77,797.80 706.49,819.49 692.23,818.65"/>
    <poly id="342683116" type="building" color="255,230,230" fill="1" layer="-1.00" shape="710.58,819.13 711.85,797.45 726.11,798.28 724.82,819.96 710.58,819.13"/>
    <poly id="342683117" type="building" color="255,230,230" fill="1" layer="-1.00" shape="729.79,819.63 731.07,797.93 745.32,798.77 744.05,820.46 729.79,819.63"/>
    <poly id="342683118" type="building" color="255,230,230" fill="1" layer="-1.00" shape="748.42,820.11 749.70,798.41 763.96,799.25 762.67,820.94 748.42,820.11"/>
    <poly id="342683119" type="building" color="255,230,230" fill="1" layer="-1.00" shape="767.33,821.46 768.61,799.77 782.87,800.61 781.59,822.29 767.33,821.46"/>
    <poly id="342683120" type="building" color="255,230,230" fill="1" layer="-1.00" shape="785.68,821.93 786.96,800.25 801.21,801.08 799.92,822.77 785.68,821.93"/>
    <poly id="342683121" type="building" color="255,230,230" fill="1" layer="-1.00" shape="807.13,756.66 808.41,734.97 822.67,735.80 821.39,757.50 807.13,756.66"/>
    <poly id="342683122" type="building" color="255,230,230" fill="1" layer="-1.00" shape="682.10,741.97 682.50,735.20 692.63,735.79 691.58,753.55 679.89,752.87 680.54,741.89 682.10,741.97"/>
    <poly id="342683123" type="building" color="255,230,230" fill="1" layer="-1.00" shape="695.35,752.03 696.64,730.34 710.89,731.18 709.61,752.86 695.35,752.03"/>
    <poly id="342683124" type="building" color="255,230,230" fill="1" layer="-1.00" shape="713.70,752.51 714.98,730.82 729.23,731.66 727.96,753.34 713.70,752.51"/>
    <poly id="342683125" type="building" color="255,230,230" fill="1" layer="-1.00" shape="729.96,755.16 731.38,731.15 749.96,732.24 748.54,756.24 729.96,755.16"/>
    <poly id="342683126" type="building" color="255,230,230" fill="1" layer="-1.00" shape="751.55,753.49 752.82,731.79 767.08,732.62 765.80,754.31 751.55,753.49"/>
    <poly id="342683128" type="building" color="255,230,230" fill="1" layer="-1.00" shape="770.46,754.83 771.74,733.15 785.99,733.98 784.71,755.67 770.46,754.83"/>
    <poly id="342683129" type="building" color="255,230,230" fill="1" layer="-1.00" shape="788.80,755.31 790.09,733.63 804.34,734.46 803.06,756.15 788.80,755.31"/>
    <poly id="342683131" type="building" color="255,230,230" fill="1" layer="-1.00" shape="674.09,775.59 675.38,753.90 689.63,754.74 688.35,776.42 674.09,775.59"/>
    <poly id="342683132" type="building" color="255,230,230" fill="1" layer="-1.00" shape="711.49,777.01 712.77,755.31 727.03,756.14 725.74,777.84 711.49,777.01"/>
    <poly id="342683133" type="building" color="255,230,230" fill="1" layer="-1.00" shape="693.15,776.53 694.42,754.83 708.68,755.67 707.39,777.36 693.15,776.53"/>
    <poly id="342683135" type="building" color="255,230,230" fill="1" layer="-1.00" shape="749.34,777.97 750.62,756.29 764.86,757.12 763.58,778.81 749.34,777.97"/>
    <poly id="342683136" type="building" color="255,230,230" fill="1" layer="-1.00" shape="768.25,779.33 769.53,757.64 783.78,758.47 782.51,780.17 768.25,779.33"/>
    <poly id="342683137" type="building" color="255,230,230" fill="1" layer="-1.00" shape="786.59,779.81 787.87,758.11 802.13,758.95 800.84,780.64 786.59,779.81"/>
    <poly id="342683138" type="building" color="255,230,230" fill="1" layer="-1.00" shape="804.93,781.15 806.20,759.47 820.45,760.30 819.17,781.98 804.93,781.15"/>
    <poly id="343604570" type="building" color="255,230,230" fill="1" layer="-1.00" shape="601.91,971.12 624.67,972.56 625.47,959.94 602.71,958.50 601.91,971.12"/>
    <poly id="343604571" type="building" color="255,230,230" fill="1" layer="-1.00" shape="626.22,968.42 645.20,969.62 645.96,957.76 631.06,956.81 631.31,952.89 627.22,952.64 626.22,968.42"/>
    <poly id="343604573" type="building" color="255,230,230" fill="1" layer="-1.00" shape="605.50,952.49 622.52,953.57 623.44,939.11 606.42,938.03 605.50,952.49"/>
    <poly id="343604574" type="building" color="255,230,230" fill="1" layer="-1.00" shape="627.69,940.20 626.99,951.20 644.04,952.27 644.75,941.29 627.69,940.20"/>
    <poly id="343604577" type="building" color="255,230,230" fill="1" layer="-1.00" shape="628.36,926.61 627.69,937.15 642.84,938.10 643.52,927.57 628.36,926.61"/>
    <poly id="343604578" type="building" color="255,230,230" fill="1" layer="-1.00" shape="604.86,917.60 619.12,918.50 619.88,906.59 605.63,905.69 604.86,917.60"/>
    <poly id="343604578#1" type="shop" color="237,199,255" fill="1" layer="-1.00" shape="604.86,917.60 619.12,918.50 619.88,906.59 605.63,905.69 604.86,917.60"/>
    <poly id="343604579" type="building" color="255,230,230" fill="1" layer="-1.00" shape="625.66,921.01 647.10,922.36 647.79,911.53 626.35,910.18 625.66,921.01"/>
    <poly id="343604580" type="building" color="255,230,230" fill="1" layer="-1.00" shape="606.37,864.36 605.68,879.05 628.33,880.62 629.26,865.92 606.37,864.36"/>
    <poly id="343604581" type="building" color="255,230,230" fill="1" layer="-1.00" shape="635.77,881.25 634.96,893.92 649.26,894.83 650.08,882.15 635.77,881.25"/>
    <poly id="343604582" type="building" color="255,230,230" fill="1" layer="-1.00" shape="606.91,883.34 633.60,885.02 632.52,901.90 626.64,901.53 627.02,895.67 617.86,895.10 617.44,901.71 605.78,900.97 606.63,887.40 606.91,883.34"/>
    <poly id="343604583" type="building" color="255,230,230" fill="1" layer="-1.00" shape="633.78,897.82 633.21,906.81 645.51,907.60 646.08,898.60 633.78,897.82"/>
    <poly id="343605803" type="building" color="255,230,230" fill="1" layer="-1.00" shape="634.82,864.37 633.99,877.41 647.49,878.26 648.32,865.21 634.82,864.37"/>
    <poly id="343605805" type="building" color="255,230,230" fill="1" layer="-1.00" shape="638.35,827.73 637.65,840.17 652.39,840.99 653.09,828.54 638.35,827.73"/>
    <poly id="343605806" type="building" color="255,230,230" fill="1" layer="-1.00" shape="638.81,789.36 638.20,805.46 656.24,806.14 656.86,790.03 638.81,789.36"/>
    <poly id="343605807" type="building" color="255,230,230" fill="1" layer="-1.00" shape="637.70,809.30 637.28,825.85 655.01,826.29 655.42,809.74 637.70,809.30"/>
    <poly id="343605808" type="building" color="255,230,230" fill="1" layer="-1.00" shape="641.65,771.46 640.72,786.79 657.10,787.78 658.04,772.44 641.65,771.46"/>
    <poly id="343605810" type="building" color="255,230,230" fill="1" layer="-1.00" shape="610.50,824.23 610.10,840.25 630.51,840.75 630.90,824.73 610.50,824.23"/>
    <poly id="343605811" type="building" color="255,230,230" fill="1" layer="-1.00" shape="612.27,808.31 611.71,821.47 631.55,822.31 632.11,809.16 612.27,808.31"/>
    <poly id="343605812" type="building" color="255,230,230" fill="1" layer="-1.00" shape="615.03,772.12 612.90,805.60 634.32,806.95 636.45,773.46 615.03,772.12"/>
    <poly id="343605813" type="building" color="255,230,230" fill="1" layer="-1.00" shape="613.20,769.07 639.42,771.02 640.58,755.53 614.37,753.57 613.20,769.07"/>
    <poly id="343605814" type="building" color="255,230,230" fill="1" layer="-1.00" shape="642.99,755.36 641.72,769.13 659.04,770.72 660.31,756.95 642.99,755.36"/>
    <poly id="343605817" type="building" color="255,230,230" fill="1" layer="-1.00" shape="628.67,735.52 628.12,750.27 638.23,750.64 638.77,735.88 628.67,735.52"/>
    <poly id="343605818" type="building" color="255,230,230" fill="1" layer="-1.00" shape="642.04,735.90 662.39,737.50 661.64,747.03 641.29,745.44 642.04,735.90"/>
    <poly id="343605819" type="building" color="255,230,230" fill="1" layer="-1.00" shape="642.15,718.31 643.01,734.39 662.00,733.38 661.13,717.29 642.15,718.31"/>
    <poly id="343605821" type="building" color="255,230,230" fill="1" layer="-1.00" shape="642.78,696.02 642.04,712.51 661.58,713.38 662.31,696.89 642.78,696.02"/>
    <poly id="343605822" type="building" color="255,230,230" fill="1" layer="-1.00" shape="616.50,697.44 616.20,714.47 639.61,714.88 639.91,697.85 616.50,697.44"/>
    <poly id="343632506" type="building" color="255,230,230" fill="1" layer="-1.00" shape="680.45,711.34 693.27,712.33 694.45,697.17 681.63,696.17 680.45,711.34"/>
    <poly id="343632508" type="building" color="255,230,230" fill="1" layer="-1.00" shape="694.99,712.65 707.81,713.63 709.00,698.47 696.18,697.48 694.99,712.65"/>
    <poly id="343632510" type="building" color="255,230,230" fill="1" layer="-1.00" shape="709.26,713.66 722.07,714.66 723.26,699.49 710.44,698.49 709.26,713.66"/>
    <poly id="343632511" type="building" color="255,230,230" fill="1" layer="-1.00" shape="732.27,713.03 745.08,714.02 746.27,698.85 733.45,697.87 732.27,713.03"/>
    <poly id="343632513" type="building" color="255,230,230" fill="1" layer="-1.00" shape="748.56,714.35 761.38,715.35 762.56,700.19 749.74,699.19 748.56,714.35"/>
    <poly id="343632514" type="building" color="255,230,230" fill="1" layer="-1.00" shape="764.56,716.26 777.37,717.25 778.56,702.09 765.75,701.09 764.56,716.26"/>
    <poly id="343632515" type="building" color="255,230,230" fill="1" layer="-1.00" shape="778.23,717.56 791.05,718.55 792.24,703.38 779.41,702.40 778.23,717.56"/>
    <poly id="343632516" type="building" color="255,230,230" fill="1" layer="-1.00" shape="792.20,718.57 805.01,719.57 806.20,704.40 793.39,703.41 792.20,718.57"/>
    <poly id="343632877" type="building" color="255,230,230" fill="1" layer="-1.00" shape="663.94,951.51 680.88,952.58 681.46,943.38 664.51,942.32 663.94,951.51"/>
    <poly id="343632878" type="building" color="255,230,230" fill="1" layer="-1.00" shape="661.45,966.25 678.40,967.31 678.98,958.11 662.04,957.05 661.45,966.25"/>
    <poly id="343632879" type="building" color="255,230,230" fill="1" layer="-1.00" shape="663.78,938.49 680.72,939.56 681.30,930.35 664.37,929.29 663.78,938.49"/>
    <poly id="343632880" type="building" color="255,230,230" fill="1" layer="-1.00" shape="664.19,927.79 681.12,928.85 681.71,919.65 664.76,918.59 664.19,927.79"/>
    <poly id="343632881" type="building" color="255,230,230" fill="1" layer="-1.00" shape="685.11,931.77 702.05,932.83 702.63,923.63 685.69,922.57 685.11,931.77"/>
    <poly id="343632882" type="building" color="255,230,230" fill="1" layer="-1.00" shape="683.25,943.04 700.18,944.10 700.77,934.89 683.83,933.83 683.25,943.04"/>
    <poly id="343634294" type="building" color="255,230,230" fill="1" layer="-1.00" shape="760.97,953.63 775.80,954.68 776.61,943.25 761.78,942.20 760.97,953.63"/>
    <poly id="343634295" type="building" color="255,230,230" fill="1" layer="-1.00" shape="762.27,940.05 777.10,941.10 777.92,929.67 763.09,928.62 762.27,940.05"/>
    <poly id="343634297" type="building" color="255,230,230" fill="1" layer="-1.00" shape="712.78,966.29 727.62,967.29 728.30,957.26 713.45,956.27 712.78,966.29"/>
    <poly id="343634305" type="building" color="255,230,230" fill="1" layer="-1.00" shape="735.54,933.69 750.37,934.74 751.19,923.31 736.36,922.26 735.54,933.69"/>
    <poly id="343634308" type="building" color="255,230,230" fill="1" layer="-1.00" shape="713.80,954.33 728.63,955.33 729.40,943.89 714.57,942.89 713.80,954.33"/>
    <poly id="343634323" type="building" color="255,230,230" fill="1" layer="-1.00" shape="733.19,962.56 746.69,963.44 747.19,955.74 733.70,954.87 733.19,962.56"/>
    <poly id="343634325" type="building" color="255,230,230" fill="1" layer="-1.00" shape="733.26,951.27 746.75,952.14 747.26,944.45 733.76,943.57 733.26,951.27"/>
    <poly id="343634326" type="building" color="255,230,230" fill="1" layer="-1.00" shape="734.23,942.02 747.72,942.90 748.22,935.20 734.73,934.32 734.23,942.02"/>
    <poly id="343634327" type="building" color="255,230,230" fill="1" layer="-1.00" shape="712.72,939.39 730.73,940.59 731.23,933.14 713.23,931.92 712.72,939.39"/>
    <poly id="343634329" type="building" color="255,230,230" fill="1" layer="-1.00" shape="779.99,943.62 795.38,944.45 796.34,927.07 780.94,926.24 779.99,943.62"/>
    <poly id="343634330" type="building" color="255,230,230" fill="1" layer="-1.00" shape="777.72,966.72 790.92,967.37 791.93,947.13 778.72,946.48 777.72,966.72"/>
    <poly id="343634331" type="building" color="255,230,230" fill="1" layer="-1.00" shape="758.79,977.44 774.38,978.08 775.29,955.88 759.70,955.25 758.79,977.44"/>
    <poly id="343680930" type="building" color="255,230,230" fill="1" layer="-1.00" shape="813.43,896.31 812.87,910.46 824.56,910.92 825.12,896.77 813.43,896.31"/>
    <poly id="343680934" type="building" color="255,230,230" fill="1" layer="-1.00" shape="815.15,873.00 814.40,891.78 844.98,892.98 845.73,874.21 815.15,873.00"/>
    <poly id="343683120" type="building" color="255,230,230" fill="1" layer="-1.00" shape="827.12,974.90 840.36,975.04 840.46,965.29 827.22,965.15 827.12,974.90"/>
    <poly id="343683121" type="building" color="255,230,230" fill="1" layer="-1.00" shape="830.60,937.33 843.85,937.47 843.94,927.72 830.70,927.58 830.60,937.33"/>
    <poly id="343683122" type="building" color="255,230,230" fill="1" layer="-1.00" shape="812.17,935.61 825.42,935.75 825.52,926.00 812.28,925.86 812.17,935.61"/>
    <poly id="343683123" type="building" color="255,230,230" fill="1" layer="-1.00" shape="808.95,950.47 822.19,950.61 822.29,940.86 809.05,940.73 808.95,950.47"/>
    <poly id="343683124" type="building" color="255,230,230" fill="1" layer="-1.00" shape="829.70,950.30 842.94,950.44 843.04,940.69 829.80,940.56 829.70,950.30"/>
    <poly id="343683125" type="building" color="255,230,230" fill="1" layer="-1.00" shape="827.28,961.35 840.51,961.49 840.62,951.74 827.38,951.60 827.28,961.35"/>
    <poly id="343683128" type="building" color="255,230,230" fill="1" layer="-1.00" shape="807.94,973.37 821.18,973.50 821.28,963.76 808.04,963.62 807.94,973.37"/>
    <poly id="343844647" type="commercial" color="209,209,204" fill="1" layer="-3.00" shape="527.62,1109.32 543.44,883.20 518.03,881.68 519.68,854.36 563.14,858.72 569.64,863.50 557.06,1111.34 527.62,1109.32"/>
    <poly id="346453462" type="building" color="255,230,230" fill="1" layer="-1.00" shape="467.00,944.64 479.58,945.37 480.11,936.15 467.53,935.43 467.00,944.64"/>
    <poly id="346453463" type="building" color="255,230,230" fill="1" layer="-1.00" shape="436.90,931.34 450.95,932.37 451.71,922.12 437.67,921.09 436.90,931.34"/>
    <poly id="346453470" type="building" color="255,230,230" fill="1" layer="-1.00" shape="468.41,933.35 484.59,934.28 485.24,923.06 469.07,922.13 468.41,933.35"/>
    <poly id="346453472" type="building" color="255,230,230" fill="1" layer="-1.00" shape="519.92,910.52 534.42,911.54 535.14,901.34 520.66,900.31 519.92,910.52"/>
    <poly id="346453476" type="building" color="255,230,230" fill="1" layer="-1.00" shape="416.56,955.00 432.55,956.17 433.35,945.51 417.36,944.33 416.56,955.00"/>
    <poly id="346453486" type="building" color="255,230,230" fill="1" layer="-1.00" shape="488.04,921.92 501.55,922.69 502.29,910.06 488.78,909.28 488.04,921.92"/>
    <poly id="346453507" type="building" color="255,230,230" fill="1" layer="-1.00" shape="436.40,942.96 446.98,943.74 447.57,935.67 437.00,934.88 436.40,942.96"/>
    <poly id="346453513" type="building" color="255,230,230" fill="1" layer="-1.00" shape="464.86,967.02 479.64,967.87 480.10,959.77 465.32,958.92 464.86,967.02"/>
    <poly id="346453520" type="building" color="255,230,230" fill="1" layer="-1.00" shape="435.63,967.69 448.07,968.61 448.70,960.17 436.26,959.25 435.63,967.69"/>
    <poly id="346453536" type="building" color="255,230,230" fill="1" layer="-1.00" shape="523.32,896.03 536.36,896.96 537.20,885.32 524.16,884.40 523.32,896.03"/>
    <poly id="346453546" type="building" color="255,230,230" fill="1" layer="-1.00" shape="431.91,942.70 432.53,934.41 419.21,933.43 418.59,941.72 431.91,942.70"/>
    <poly id="346453555" type="building" color="255,230,230" fill="1" layer="-1.00" shape="434.93,956.32 448.28,957.30 449.19,945.05 435.84,944.07 434.93,956.32"/>
    <poly id="346453567" type="building" color="255,230,230" fill="1" layer="-1.00" shape="433.13,918.79 434.03,906.86 420.61,905.88 419.73,917.80 433.13,918.79"/>
    <poly id="346453583" type="building" color="255,230,230" fill="1" layer="-1.00" shape="419.47,930.54 434.46,931.65 435.22,921.42 420.24,920.32 419.47,930.54"/>
    <poly id="346453593" type="building" color="255,230,230" fill="1" layer="-1.00" shape="482.40,969.73 497.87,970.62 498.36,962.28 482.89,961.39 482.40,969.73"/>
    <poly id="346453594" type="building" color="255,230,230" fill="1" layer="-1.00" shape="519.33,925.93 533.64,926.65 534.23,914.90 519.92,914.19 519.33,925.93"/>
    <poly id="346517400" type="building" color="255,230,230" fill="1" layer="-1.00" shape="521.17,867.52 541.78,868.98 542.70,856.15 522.10,854.70 521.17,867.52"/>
    <poly id="346517492" type="building" color="255,230,230" fill="1" layer="-1.00" shape="522.66,869.35 521.81,881.24 538.70,882.43 539.56,870.54 522.66,869.35"/>
    <poly id="346517560" type="building" color="255,230,230" fill="1" layer="-1.00" shape="547.30,871.93 568.19,873.41 569.00,861.92 548.13,860.46 547.30,871.93"/>
    <poly id="346517573" type="building" color="255,230,230" fill="1" layer="-1.00" shape="555.69,962.69 556.62,950.47 540.18,949.23 539.25,961.44 555.69,962.69"/>
    <poly id="346517751" type="building" color="255,230,230" fill="1" layer="-1.00" shape="569.42,932.49 570.62,916.23 546.93,914.50 545.73,930.76 569.42,932.49"/>
    <poly id="346517817" type="building" color="255,230,230" fill="1" layer="-1.00" shape="563.98,890.73 564.87,878.30 552.02,877.39 552.32,873.29 546.26,872.86 545.08,889.40 563.98,890.73"/>
    <poly id="346517820" type="building" color="255,230,230" fill="1" layer="-1.00" shape="560.50,908.15 561.18,898.71 553.09,898.14 553.30,895.15 546.86,894.70 545.97,907.12 560.50,908.15"/>
    <poly id="346526045" type="building" color="255,230,230" fill="1" layer="-1.00" shape="715.12,923.04 714.69,929.47 730.58,930.53 731.02,924.10 715.12,923.04"/>
    <poly id="346526046" type="building" color="255,230,230" fill="1" layer="-1.00" shape="552.17,746.20 551.10,761.03 572.17,762.52 573.24,747.69 552.17,746.20"/>
    <poly id="346526047" type="building" color="255,230,230" fill="1" layer="-1.00" shape="552.00,804.14 550.57,824.29 522.93,822.33 522.13,833.49 569.74,836.86 571.98,805.55 552.00,804.14"/>
    <poly id="346526051" type="building" color="255,230,230" fill="1" layer="-1.00" shape="556.24,729.17 555.26,742.87 574.83,744.26 575.81,730.55 556.24,729.17"/>
    <poly id="346526057" type="building" color="255,230,230" fill="1" layer="-1.00" shape="550.55,786.21 549.71,797.87 568.31,799.19 569.14,787.53 550.55,786.21"/>
    <poly id="346526061" type="building" color="255,230,230" fill="1" layer="-1.00" shape="551.38,766.85 550.50,779.14 569.99,780.52 570.87,768.22 551.38,766.85"/>
    <poly id="346526064" type="building" color="255,230,230" fill="1" layer="-1.00" shape="553.72,709.47 552.60,725.07 566.97,726.09 568.08,710.49 553.72,709.47"/>
    <poly id="346526066" type="building" color="255,230,230" fill="1" layer="-1.00" shape="555.14,691.45 554.23,704.13 573.18,705.46 574.10,692.79 555.14,691.45"/>
    <poly id="346769585" type="building" color="255,230,230" fill="1" layer="-1.00" shape="682.73,953.78 698.85,954.79 699.44,945.37 683.33,944.36 682.73,953.78"/>
    <poly id="346769590" type="building" color="255,230,230" fill="1" layer="-1.00" shape="464.38,956.90 479.94,957.79 480.56,947.07 465.00,946.18 464.38,956.90"/>
    <poly id="346769592" type="building" color="255,230,230" fill="1" layer="-1.00" shape="680.78,966.82 698.07,967.91 698.67,958.56 681.38,957.47 680.78,966.82"/>
    <poly id="346769598" type="building" color="255,230,230" fill="1" layer="-1.00" shape="483.25,944.29 499.06,945.19 499.57,936.37 483.76,935.47 483.25,944.29"/>
    <poly id="346769600" type="building" color="255,230,230" fill="1" layer="-1.00" shape="486.71,933.07 501.62,933.93 502.14,924.85 487.24,924.00 486.71,933.07"/>
    <poly id="346769609" type="building" color="255,230,230" fill="1" layer="-1.00" shape="603.84,931.41 625.52,932.54 626.08,922.00 604.39,920.86 603.84,931.41"/>
    <poly id="346769614" type="building" color="255,230,230" fill="1" layer="-1.00" shape="482.93,957.60 498.73,958.51 499.38,947.40 483.57,946.49 482.93,957.60"/>
    <poly id="346772898" type="building" color="255,230,230" fill="1" layer="-1.00" shape="514.58,942.30 531.34,943.20 532.08,929.64 515.32,928.74 514.58,942.30"/>
    <poly id="346772922" type="building" color="255,230,230" fill="1" layer="-1.00" shape="561.38,948.22 562.44,933.74 535.08,931.76 534.02,946.24 561.38,948.22"/>
    <poly id="346890903" type="building" color="255,230,230" fill="1" layer="-1.00" shape="809.06,961.83 822.30,961.97 822.40,952.23 809.16,952.09 809.06,961.83"/>
    <poly id="347216852" type="building" color="255,230,230" fill="1" layer="-1.00" shape="497.73,765.43 514.02,766.50 514.65,757.18 498.35,756.10 497.73,765.43"/>
    <poly id="347216875" type="building" color="255,230,230" fill="1" layer="-1.00" shape="428.36,770.04 441.42,770.91 442.05,761.50 428.98,760.64 428.36,770.04"/>
    <poly id="347216883" type="building" color="255,230,230" fill="1" layer="-1.00" shape="480.16,725.41 494.29,726.35 494.90,717.03 480.78,716.10 480.16,725.41"/>
    <poly id="347216902" type="building" color="255,230,230" fill="1" layer="-1.00" shape="400.17,731.37 414.65,732.33 415.32,722.36 400.84,721.40 400.17,731.37"/>
    <poly id="347216941" type="building" color="255,230,230" fill="1" layer="-1.00" shape="430.81,720.75 447.18,721.83 447.82,712.24 431.45,711.15 430.81,720.75"/>
    <poly id="347216958" type="building" color="255,230,230" fill="1" layer="-1.00" shape="483.37,714.18 495.62,714.99 496.29,704.98 484.04,704.17 483.37,714.18"/>
    <poly id="347216963" type="building" color="255,230,230" fill="1" layer="-1.00" shape="449.44,736.14 459.10,736.79 459.83,725.88 450.16,725.24 449.44,736.14"/>
    <poly id="347217033" type="building" color="255,230,230" fill="1" layer="-1.00" shape="450.05,723.68 466.11,724.75 466.65,716.62 450.60,715.55 450.05,723.68"/>
    <poly id="347217047" type="building" color="255,230,230" fill="1" layer="-1.00" shape="481.73,739.19 496.27,740.16 496.95,730.14 482.40,729.18 481.73,739.19"/>
    <poly id="347217053" type="building" color="255,230,230" fill="1" layer="-1.00" shape="429.39,732.64 443.75,733.59 444.38,724.19 430.02,723.23 429.39,732.64"/>
    <poly id="347217069" type="building" color="255,230,230" fill="1" layer="-1.00" shape="398.78,755.50 415.36,756.59 415.86,749.08 399.29,747.98 398.78,755.50"/>
    <poly id="347217101" type="building" color="255,230,230" fill="1" layer="-1.00" shape="500.75,727.67 516.29,728.70 517.00,718.06 501.46,717.02 500.75,727.67"/>
    <poly id="347217105" type="building" color="255,230,230" fill="1" layer="-1.00" shape="449.89,700.27 450.74,687.66 431.73,686.40 430.89,699.01 449.89,700.27"/>
    <poly id="347217139" type="building" color="255,230,230" fill="1" layer="-1.00" shape="500.77,714.25 515.52,715.22 516.08,706.67 501.35,705.68 500.77,714.25"/>
    <poly id="347217170" type="building" color="255,230,230" fill="1" layer="-1.00" shape="431.16,709.88 447.94,711.00 448.59,701.54 431.80,700.43 431.16,709.88"/>
    <poly id="347217224" type="building" color="255,230,230" fill="1" layer="-1.00" shape="404.09,743.81 413.81,744.45 414.38,736.02 404.65,735.38 404.09,743.81"/>
    <poly id="347217236" type="building" color="255,230,230" fill="1" layer="-1.00" shape="396.69,769.16 414.02,770.31 414.73,759.62 397.41,758.48 396.69,769.16"/>
    <poly id="347217258" type="building" color="255,230,230" fill="1" layer="-1.00" shape="497.25,777.82 513.59,778.90 514.31,768.21 497.97,767.13 497.25,777.82"/>
    <poly id="347217341" type="building" color="255,230,230" fill="1" layer="-1.00" shape="477.48,762.59 495.49,763.79 496.12,754.36 478.11,753.18 477.48,762.59"/>
    <poly id="347217370" type="building" color="255,230,230" fill="1" layer="-1.00" shape="500.54,703.99 517.28,705.11 517.79,697.57 501.04,696.47 500.54,703.99"/>
    <poly id="347217394" type="building" color="255,230,230" fill="1" layer="-1.00" shape="445.58,772.88 456.05,773.57 456.78,762.70 446.30,762.01 445.58,772.88"/>
    <poly id="347217429" type="building" color="255,230,230" fill="1" layer="-1.00" shape="499.69,740.97 516.97,742.11 517.66,731.82 500.39,730.68 499.69,740.97"/>