<?xml version="1.0" encoding="UTF-8"?>

<!-- generated on Wednesday 31 January 2018 01:51:38 PM IST by Netedit Version 0.32.0
<?xml version="1.0" encoding="UTF-8"?>

<configuration xmlns:xsi="http://www.w3.org/2001/XMLSchema-instance" xsi:noNamespaceSchemaLocation="http://sumo.dlr.de/xsd/netconvertConfiguration.xsd">

    <input>
        <sumo-net-file value="/home/mtuity/Study/Projects/Traffic_Simulation/sony_signal_1/sony_signal_1.net.xml"/>
    </input>

    <output>
        <output-file value="/home/mtuity/Study/Projects/Traffic_Simulation/sony_signal_1/sony_signal_1.net.xml"/>
    </output>

    <processing>
        <no-internal-links value="false"/>
        <no-turnarounds value="true"/>
        <offset.disable-normalization value="true"/>
        <lefthand value="false"/>
        <junctions.corner-detail value="0"/>
        <rectangular-lane-cut value="false"/>
        <walkingareas value="false"/>
    </processing>

</configuration>
-->

<net version="0.27" xmlns:xsi="http://www.w3.org/2001/XMLSchema-instance" xsi:noNamespaceSchemaLocation="http://sumo.dlr.de/xsd/net_file.xsd">

    <location netOffset="0.00,0.00" convBoundary="785963.86,1434478.66,787223.89,1435737.05" origBoundary="77.635882,12.962565,77.647490,12.973918" projParameter="+proj=utm +zone=43 +ellps=WGS84 +datum=WGS84 +units=m +no_defs"/>

    <type id="highway.bridleway" priority="1" numLanes="1" speed="2.78" allow="pedestrian" oneway="1" width="2.00"/>
    <type id="highway.bus_guideway" priority="1" numLanes="1" speed="8.33" allow="bus" oneway="1"/>
    <type id="highway.cycleway" priority="1" numLanes="1" speed="5.56" allow="bicycle" oneway="0" width="1.00"/>
    <type id="highway.footway" priority="1" numLanes="1" speed="2.78" allow="pedestrian" oneway="1" width="2.00"/>
    <type id="highway.ford" priority="1" numLanes="1" speed="2.78" allow="army" oneway="0"/>
    <type id="highway.living_street" priority="3" numLanes="1" speed="2.78" disallow="tram rail_urban rail rail_electric ship" oneway="0"/>
    <type id="highway.motorway" priority="13" numLanes="2" speed="44.44" allow="private emergency authority army vip passenger hov taxi bus coach delivery truck trailer motorcycle evehicle custom1 custom2" oneway="1"/>
    <type id="highway.motorway_link" priority="12" numLanes="1" speed="22.22" allow="private emergency authority army vip passenger hov taxi bus coach delivery truck trailer motorcycle evehicle custom1 custom2" oneway="1"/>
    <type id="highway.path" priority="1" numLanes="1" speed="2.78" allow="bicycle pedestrian" oneway="1" width="2.00"/>
    <type id="highway.pedestrian" priority="1" numLanes="1" speed="2.78" allow="pedestrian" oneway="1" width="2.00"/>
    <type id="highway.primary" priority="9" numLanes="2" speed="27.78" disallow="tram rail_urban rail rail_electric ship" oneway="0"/>
    <type id="highway.primary_link" priority="8" numLanes="1" speed="22.22" disallow="tram rail_urban rail rail_electric ship" oneway="0"/>
    <type id="highway.raceway" priority="14" numLanes="2" speed="83.33" allow="vip" oneway="0"/>
    <type id="highway.residential" priority="4" numLanes="1" speed="13.89" disallow="tram rail_urban rail rail_electric ship" oneway="0"/>
    <type id="highway.secondary" priority="7" numLanes="2" speed="27.78" disallow="tram rail_urban rail rail_electric ship" oneway="0"/>
    <type id="highway.secondary_link" priority="6" numLanes="1" speed="22.22" disallow="tram rail_urban rail rail_electric ship" oneway="0"/>
    <type id="highway.service" priority="2" numLanes="1" speed="5.56" allow="delivery bicycle pedestrian" oneway="0"/>
    <type id="highway.services" priority="1" numLanes="1" speed="8.33" disallow="tram rail_urban rail rail_electric ship" oneway="0"/>
    <type id="highway.stairs" priority="1" numLanes="1" speed="1.39" allow="pedestrian" oneway="1" width="2.00"/>
    <type id="highway.step" priority="1" numLanes="1" speed="1.39" allow="pedestrian" oneway="1" width="2.00"/>
    <type id="highway.steps" priority="1" numLanes="1" speed="1.39" allow="pedestrian" oneway="1" width="2.00"/>
    <type id="highway.tertiary" priority="6" numLanes="1" speed="22.22" disallow="tram rail_urban rail rail_electric ship" oneway="0"/>
    <type id="highway.tertiary_link" priority="5" numLanes="1" speed="22.22" disallow="tram rail_urban rail rail_electric ship" oneway="0"/>
    <type id="highway.track" priority="1" numLanes="1" speed="5.56" disallow="tram rail_urban rail rail_electric ship" oneway="0"/>
    <type id="highway.trunk" priority="11" numLanes="2" speed="27.78" disallow="tram rail_urban rail rail_electric bicycle pedestrian ship" oneway="0"/>
    <type id="highway.trunk_link" priority="10" numLanes="1" speed="22.22" disallow="tram rail_urban rail rail_electric bicycle pedestrian ship" oneway="0"/>
    <type id="highway.unclassified" priority="5" numLanes="1" speed="13.89" disallow="tram rail_urban rail rail_electric ship" oneway="0"/>
    <type id="highway.unsurfaced" priority="1" numLanes="1" speed="8.33" disallow="tram rail_urban rail rail_electric ship" oneway="0"/>
    <type id="railway.light_rail" priority="15" numLanes="1" speed="27.78" allow="rail_urban" oneway="1"/>
    <type id="railway.preserved" priority="15" numLanes="1" speed="27.78" allow="rail" oneway="1"/>
    <type id="railway.rail" priority="15" numLanes="1" speed="83.33" allow="rail rail_electric" oneway="1"/>
    <type id="railway.subway" priority="15" numLanes="1" speed="27.78" allow="rail_urban" oneway="1"/>
    <type id="railway.tram" priority="15" numLanes="1" speed="13.89" allow="tram" oneway="1"/>

    <edge id=":253179991_w0" function="walkingarea">
        <lane id=":253179991_w0_0" index="0" allow="pedestrian" speed="1.00" length="3.30" width="3.20" shape="787200.76,1435414.74 787200.64,1435417.94 787200.88,1435411.44 787200.76,1435414.64"/>
    </edge>
    <edge id=":269700181_w0" function="walkingarea">
        <lane id=":269700181_w0_0" index="0" allow="pedestrian" speed="1.00" length="3.30" width="3.20" shape="785968.47,1435219.30 785969.31,1435216.21 785967.61,1435222.49 785968.45,1435219.40"/>
    </edge>
    <edge id=":269700182_w0" function="walkingarea">
        <lane id=":269700182_w0_0" index="0" allow="pedestrian" speed="1.00" length="3.30" width="3.20" shape="785965.22,1435275.85 785965.81,1435272.71 785964.61,1435279.09 785965.20,1435275.95"/>
    </edge>
    <edge id=":269700183_w0" function="walkingarea">
        <lane id=":269700183_w0_0" index="0" allow="pedestrian" speed="1.00" length="3.30" width="3.20" shape="785963.86,1435339.62 785964.00,1435336.42 785963.72,1435342.92 785963.86,1435339.72"/>
    </edge>
    <edge id=":286681977_w0" function="walkingarea">
        <lane id=":286681977_w0_0" index="0" allow="pedestrian" speed="1.00" length="3.30" width="3.20" shape="786801.58,1435158.92 786804.78,1435159.03 786798.28,1435158.81 786801.48,1435158.92"/>
    </edge>
    <edge id=":286681987_0" function="internal">
        <lane id=":286681987_0_0" index="0" disallow="tram rail_urban rail rail_electric ship" speed="13.89" length="9.64" shape="786801.87,1435199.04 786801.41,1435208.67"/>
    </edge>
    <edge id=":286681987_1" function="internal">
        <lane id=":286681987_1_0" index="0" disallow="tram rail_urban rail rail_electric ship" speed="13.89" length="10.41" shape="786801.87,1435199.04 786801.37,1435201.85 786800.09,1435203.82 786798.02,1435204.93 786795.17,1435205.19"/>
    </edge>
    <edge id=":286681987_2" function="internal">
        <lane id=":286681987_2_0" index="0" disallow="tram rail_urban rail rail_electric ship" speed="13.89" length="5.02" shape="786795.34,1435201.90 786796.71,1435201.77 786797.71,1435201.24 786798.33,1435200.29 786798.57,1435198.93"/>
    </edge>
    <edge id=":286681987_3" function="internal">
        <lane id=":286681987_3_0" index="0" disallow="tram rail_urban rail rail_electric ship" speed="13.89" length="10.39" shape="786795.34,1435201.90 786798.15,1435202.44 786800.09,1435203.75 786801.18,1435205.83 786801.41,1435208.67"/>
    </edge>
    <edge id=":286681987_4" function="internal">
        <lane id=":286681987_4_0" index="0" disallow="tram rail_urban rail rail_electric ship" speed="13.89" length="5.03" shape="786798.12,1435208.46 786798.01,1435207.09 786797.48,1435206.09 786796.53,1435205.46 786795.17,1435205.19"/>
    </edge>
    <edge id=":286681987_5" function="internal">
        <lane id=":286681987_5_0" index="0" disallow="tram rail_urban rail rail_electric ship" speed="13.89" length="9.55" shape="786798.12,1435208.46 786798.57,1435198.93"/>
    </edge>
    <edge id=":286681987_w0" function="walkingarea">
        <lane id=":286681987_w0_0" index="0" allow="pedestrian" speed="1.00" length="6.99" width="3.20" shape="786803.47,1435199.09 786800.27,1435198.99 786800.17,1435198.98 786796.97,1435198.88 786795.42,1435200.30 786795.26,1435203.50 786795.25,1435203.60 786795.09,1435206.79 786796.52,1435208.37 786799.72,1435208.56 786799.82,1435208.57 786803.01,1435208.77"/>
    </edge>
    <edge id=":286681996_0" function="internal">
        <lane id=":286681996_0_0" index="0" disallow="tram rail_urban rail rail_electric ship" speed="13.89" length="9.39" shape="786797.98,1435264.61 786797.50,1435273.99"/>
    </edge>
    <edge id=":286681996_1" function="internal">
        <lane id=":286681996_1_0" index="0" disallow="tram rail_urban rail rail_electric ship" speed="13.89" length="10.27" shape="786797.98,1435264.61 786797.41,1435267.37 786796.10,1435269.29 786794.04,1435270.37 786791.24,1435270.63"/>
    </edge>
    <edge id=":286681996_2" function="internal">
        <lane id=":286681996_2_0" index="0" disallow="tram rail_urban rail rail_electric ship" speed="13.89" length="4.99" shape="786791.41,1435267.33 786792.77,1435267.21 786793.77,1435266.68 786794.41,1435265.75 786794.68,1435264.41"/>
    </edge>
    <edge id=":286681996_3" function="internal">
        <lane id=":286681996_3_0" index="0" disallow="tram rail_urban rail rail_electric ship" speed="13.89" length="10.27" shape="786791.41,1435267.33 786794.17,1435267.87 786796.11,1435269.16 786797.22,1435271.20 786797.50,1435273.99"/>
    </edge>
    <edge id=":286681996_4" function="internal">
        <lane id=":286681996_4_0" index="0" disallow="tram rail_urban rail rail_electric ship" speed="13.89" length="4.99" shape="786794.21,1435273.86 786794.07,1435272.51 786793.53,1435271.51 786792.59,1435270.89 786791.24,1435270.63"/>
    </edge>
    <edge id=":286681996_5" function="internal">
        <lane id=":286681996_5_0" index="0" disallow="tram rail_urban rail rail_electric ship" speed="13.89" length="9.46" shape="786794.21,1435273.86 786794.68,1435264.41"/>
    </edge>
    <edge id=":286681996_w0" function="walkingarea">
        <lane id=":286681996_w0_0" index="0" allow="pedestrian" speed="1.00" length="6.93" width="3.20" shape="786799.57,1435264.71 786796.38,1435264.51 786796.28,1435264.51 786793.09,1435264.31 786791.50,1435265.73 786791.33,1435268.93 786791.33,1435269.03 786791.16,1435272.22 786792.61,1435273.80 786795.80,1435273.93 786795.90,1435273.93 786799.10,1435274.06"/>
    </edge>
    <edge id=":286682015_0" function="internal">
        <lane id=":286682015_0_0" index="0" disallow="tram rail_urban rail rail_electric ship" speed="22.22" length="9.50" shape="786798.00,1435338.51 786788.51,1435338.02"/>
    </edge>
    <edge id=":286682015_1" function="internal">
        <lane id=":286682015_1_0" index="0" disallow="tram rail_urban rail rail_electric ship" speed="18.05" length="10.33" shape="786798.00,1435338.51 786795.24,1435337.97 786793.31,1435336.66 786792.21,1435334.59 786791.92,1435331.77"/>
    </edge>
    <edge id=":286682015_2" function="internal">
        <lane id=":286682015_2_0" index="0" disallow="tram rail_urban rail rail_electric ship" speed="18.05" length="5.05" shape="786795.22,1435331.90 786795.36,1435333.29 786795.89,1435334.31 786796.83,1435334.95 786798.17,1435335.22"/>
    </edge>
    <edge id=":286682015_3" function="internal">
        <lane id=":286682015_3_0" index="0" disallow="tram rail_urban rail rail_electric ship" speed="18.05" length="10.39" shape="786795.22,1435331.90 786794.70,1435334.70 786793.41,1435336.66 786791.35,1435337.76 786788.51,1435338.02"/>
    </edge>
    <edge id=":286682015_4" function="internal">
        <lane id=":286682015_4_0" index="0" disallow="tram rail_urban rail rail_electric ship" speed="18.05" length="5.02" shape="786788.68,1435334.72 786790.05,1435334.60 786791.05,1435334.06 786791.67,1435333.12 786791.92,1435331.77"/>
    </edge>
    <edge id=":286682015_5" function="internal">
        <lane id=":286682015_5_0" index="0" disallow="tram rail_urban rail rail_electric ship" speed="22.22" length="9.50" shape="786788.68,1435334.72 786798.17,1435335.22"/>
    </edge>
    <edge id=":286682015_w0" function="walkingarea">
        <lane id=":286682015_w0_0" index="0" allow="pedestrian" speed="1.00" length="6.97" width="3.20" shape="786797.91,1435340.11 786798.08,1435336.92 786798.08,1435336.82 786798.25,1435333.62 786796.82,1435331.96 786793.62,1435331.83 786793.52,1435331.83 786790.32,1435331.70 786788.76,1435333.12 786788.60,1435336.32 786788.59,1435336.42 786788.42,1435339.61"/>
    </edge>
    <edge id=":287911276_w0" function="walkingarea">
        <lane id=":287911276_w0_0" index="0" allow="pedestrian" speed="1.00" length="3.30" width="3.20" shape="786363.42,1435587.76 786360.23,1435587.56 786366.71,1435587.96 786363.52,1435587.76"/>
    </edge>
    <edge id=":3370456516_w0" function="walkingarea">
        <lane id=":3370456516_w0_0" index="0" allow="pedestrian" speed="1.00" length="3.30" width="3.20" shape="787223.89,1435359.23 787223.72,1435362.43 787224.06,1435355.93 787223.89,1435359.13"/>
    </edge>
    <edge id=":3530437516_0" function="internal">
        <lane id=":3530437516_0_0" index="0" disallow="tram rail_urban rail rail_electric ship" speed="18.05" length="5.01" shape="786431.08,1435316.08 786429.70,1435316.17 786428.69,1435316.67 786428.04,1435317.60 786427.75,1435318.94"/>
    </edge>
    <edge id=":3530437516_1" function="internal">
        <lane id=":3530437516_1_0" index="0" disallow="tram rail_urban rail rail_electric ship" speed="22.22" length="9.50" shape="786431.08,1435316.08 786421.61,1435315.31"/>
    </edge>
    <edge id=":3530437516_2" function="internal">
        <lane id=":3530437516_2_0" index="0" disallow="tram rail_urban rail rail_electric ship" speed="22.22" length="9.50" shape="786421.88,1435312.02 786431.34,1435312.79"/>
    </edge>
    <edge id=":3530437516_3" function="internal">
        <lane id=":3530437516_3_0" index="0" disallow="tram rail_urban rail rail_electric ship" speed="18.05" length="10.32" shape="786421.88,1435312.02 786424.62,1435312.65 786426.51,1435314.01 786427.55,1435316.11 786427.75,1435318.94"/>
    </edge>
    <edge id=":3530437516_4" function="internal">
        <lane id=":3530437516_4_0" index="0" disallow="tram rail_urban rail rail_electric ship" speed="18.05" length="5.05" shape="786424.46,1435318.71 786424.36,1435317.32 786423.86,1435316.29 786422.94,1435315.62 786421.61,1435315.31"/>
    </edge>
    <edge id=":3530437516_5" function="internal">
        <lane id=":3530437516_5_0" index="0" disallow="tram rail_urban rail rail_electric ship" speed="18.05" length="10.38" shape="786424.46,1435318.71 786425.06,1435315.92 786426.41,1435314.01 786428.50,1435312.97 786431.34,1435312.79"/>
    </edge>
    <edge id=":3530437516_w0" function="walkingarea">
        <lane id=":3530437516_w0_0" index="0" allow="pedestrian" speed="1.00" length="6.97" width="3.20" shape="786430.95,1435317.68 786431.21,1435314.49 786431.21,1435314.39 786431.47,1435311.20 786422.01,1435310.43 786421.75,1435313.62 786421.74,1435313.72 786421.48,1435316.91 786422.86,1435318.60 786426.05,1435318.82 786426.15,1435318.83 786429.35,1435319.05"/>
    </edge>
    <edge id=":3532729011_0" function="internal">
        <lane id=":3532729011_0_0" index="0" disallow="tram rail_urban rail rail_electric ship" speed="13.89" length="9.50" shape="786434.97,1435259.66 786425.49,1435258.92"/>
    </edge>
    <edge id=":3532729011_1" function="internal">
        <lane id=":3532729011_1_0" index="0" disallow="tram rail_urban rail rail_electric ship" speed="13.89" length="10.33" shape="786434.97,1435259.66 786432.24,1435259.04 786430.34,1435257.69 786429.28,1435255.59 786429.05,1435252.75"/>
    </edge>
    <edge id=":3532729011_2" function="internal">
        <lane id=":3532729011_2_0" index="0" disallow="tram rail_urban rail rail_electric ship" speed="13.89" length="5.08" shape="786432.35,1435252.94 786432.46,1435254.35 786432.97,1435255.39 786433.89,1435256.07 786435.22,1435256.37"/>
    </edge>
    <edge id=":3532729011_3" function="internal">
        <lane id=":3532729011_3_0" index="0" disallow="tram rail_urban rail rail_electric ship" speed="13.89" length="10.42" shape="786432.35,1435252.94 786431.78,1435255.75 786430.44,1435257.68 786428.35,1435258.74 786425.49,1435258.92"/>
    </edge>
    <edge id=":3532729011_4" function="internal">
        <lane id=":3532729011_4_0" index="0" disallow="tram rail_urban rail rail_electric ship" speed="13.89" length="5.02" shape="786425.75,1435255.63 786427.13,1435255.54 786428.14,1435255.03 786428.78,1435254.10 786429.05,1435252.75"/>
    </edge>
    <edge id=":3532729011_5" function="internal">
        <lane id=":3532729011_5_0" index="0" disallow="tram rail_urban rail rail_electric ship" speed="13.89" length="9.50" shape="786425.75,1435255.63 786435.22,1435256.37"/>
    </edge>
    <edge id=":3532729011_w0" function="walkingarea">
        <lane id=":3532729011_w0_0" index="0" allow="pedestrian" speed="1.00" length="6.98" width="3.20" shape="786434.84,1435261.25 786435.09,1435258.06 786435.10,1435257.96 786435.35,1435254.77 786433.95,1435253.03 786430.75,1435252.85 786430.65,1435252.84 786427.46,1435252.65 786425.87,1435254.04 786425.62,1435257.23 786425.62,1435257.33 786425.37,1435260.52"/>
    </edge>
    <edge id=":412119404_0" function="internal">
        <lane id=":412119404_0_0" index="0" disallow="tram rail_urban rail rail_electric ship" speed="13.89" length="5.11" shape="786621.40,1435395.22 786619.97,1435395.35 786618.93,1435395.89 786618.26,1435396.82 786617.97,1435398.15"/>
    </edge>
    <edge id=":412119404_1" function="internal">
        <lane id=":412119404_1_0" index="0" disallow="tram rail_urban rail rail_electric ship" speed="13.89" length="10.46" shape="786621.40,1435395.22 786618.57,1435394.70 786616.60,1435393.41 786615.51,1435391.32 786615.28,1435388.45"/>
    </edge>
    <edge id=":412119404_2" function="internal">
        <lane id=":412119404_2_0" index="0" disallow="tram rail_urban rail rail_electric ship" speed="13.89" length="5.03" shape="786618.58,1435388.66 786618.69,1435390.04 786619.21,1435391.05 786620.16,1435391.67 786621.52,1435391.92"/>
    </edge>
    <edge id=":412119404_3" function="internal">
        <lane id=":412119404_3_0" index="0" disallow="tram rail_urban rail rail_electric ship" speed="13.89" length="9.50" shape="786618.58,1435388.66 786617.97,1435398.15"/>
    </edge>
    <edge id=":412119404_4" function="internal">
        <lane id=":412119404_4_0" index="0" disallow="tram rail_urban rail rail_electric ship" speed="13.89" length="9.51" shape="786614.68,1435397.94 786615.28,1435388.45"/>
    </edge>
    <edge id=":412119404_5" function="internal">
        <lane id=":412119404_5_0" index="0" disallow="tram rail_urban rail rail_electric ship" speed="13.89" length="10.33" shape="786614.68,1435397.94 786615.25,1435395.22 786616.59,1435393.31 786618.67,1435392.21 786621.52,1435391.92"/>
    </edge>
    <edge id=":412119404_w0" function="walkingarea">
        <lane id=":412119404_w0_0" index="0" allow="pedestrian" speed="1.00" length="6.99" width="3.20" shape="786621.34,1435396.81 786621.46,1435393.62 786621.46,1435393.52 786621.58,1435390.32 786620.17,1435388.77 786616.98,1435388.56 786616.88,1435388.56 786613.69,1435388.35 786613.08,1435397.84 786616.28,1435398.04 786616.38,1435398.05 786619.57,1435398.25"/>
    </edge>
    <edge id=":412119575_0" function="internal">
        <lane id=":412119575_0_0" index="0" disallow="tram rail_urban rail rail_electric ship" speed="18.05" length="5.14" shape="786625.59,1435329.47 786624.18,1435329.59 786623.15,1435330.13 786622.49,1435331.09 786622.20,1435332.46"/>
    </edge>
    <edge id=":412119575_1" function="internal">
        <lane id=":412119575_1_0" index="0" speed="18.05" length="9.61" shape="786625.59,1435329.47 786615.99,1435328.97"/>
    </edge>
    <edge id=":412119575_2" function="internal">
        <lane id=":412119575_2_0" index="0" disallow="tram rail_urban rail rail_electric ship" speed="18.05" length="10.43" shape="786625.59,1435329.47 786622.78,1435328.92 786620.84,1435327.59 786619.77,1435325.50 786619.57,1435322.64"/>
    </edge>
    <edge id=":412119575_3" function="internal">
        <lane id=":412119575_3_0" index="0" disallow="tram rail_urban rail rail_electric ship" speed="18.05" length="5.03" shape="786622.86,1435322.88 786622.96,1435324.26 786623.47,1435325.27 786624.41,1435325.91 786625.76,1435326.17"/>
    </edge>
    <edge id=":412119575_4" function="internal">
        <lane id=":412119575_4_0" index="0" disallow="tram rail_urban rail rail_electric ship" speed="13.89" length="9.60" shape="786622.86,1435322.88 786622.20,1435332.46"/>
    </edge>
    <edge id=":412119575_5" function="internal">
        <lane id=":412119575_5_0" index="0" speed="13.89" length="10.42" shape="786622.86,1435322.88 786622.26,1435325.67 786620.91,1435327.61 786618.82,1435328.71 786615.99,1435328.97"/>
    </edge>
    <edge id=":412119575_6" function="internal">
        <lane id=":412119575_6_0" index="0" disallow="tram rail_urban rail rail_electric ship" speed="13.89" length="5.18" shape="786616.16,1435325.67 786617.57,1435325.54 786618.60,1435325.00 786619.27,1435324.03 786619.57,1435322.64"/>
    </edge>
    <edge id=":412119575_7" function="internal">
        <lane id=":412119575_7_0" index="0" disallow="tram rail_urban rail rail_electric ship" speed="18.05" length="9.61" shape="786616.16,1435325.67 786625.76,1435326.17"/>
    </edge>
    <edge id=":412119575_8" function="internal">
        <lane id=":412119575_8_0" index="0" disallow="tram rail_urban rail rail_electric ship" speed="13.89" length="10.38" shape="786616.16,1435325.67 786618.96,1435326.22 786620.90,1435327.54 786621.98,1435329.61 786622.20,1435332.46"/>
    </edge>
    <edge id=":412119575_9" function="internal">
        <lane id=":412119575_9_0" index="0" speed="13.89" length="5.01" shape="786618.91,1435332.24 786618.80,1435330.87 786618.28,1435329.87 786617.34,1435329.23 786615.99,1435328.97"/>
    </edge>
    <edge id=":412119575_10" function="internal">
        <lane id=":412119575_10_0" index="0" disallow="tram rail_urban rail rail_electric ship" speed="13.89" length="9.63" shape="786618.91,1435332.24 786619.57,1435322.64"/>
    </edge>
    <edge id=":412119575_11" function="internal">
        <lane id=":412119575_11_0" index="0" disallow="tram rail_urban rail rail_electric ship" speed="18.05" length="10.41" shape="786618.91,1435332.24 786619.49,1435329.46 786620.83,1435327.52 786622.92,1435326.43 786625.76,1435326.17"/>
    </edge>
    <edge id=":412119575_w0" function="walkingarea">
        <lane id=":412119575_w0_0" index="0" allow="pedestrian" speed="1.00" length="7.29" width="3.20" shape="786625.51,1435331.07 786625.67,1435327.87 786625.68,1435327.77 786625.85,1435324.58 786624.46,1435323.00 786621.27,1435322.76 786621.17,1435322.76 786617.98,1435322.52 786616.24,1435324.08 786616.08,1435327.27 786616.07,1435327.37 786615.91,1435330.57 786617.31,1435332.14 786620.50,1435332.35 786620.60,1435332.36 786623.80,1435332.56"/>
    </edge>
    <edge id=":412119576_w0" function="walkingarea">
        <lane id=":412119576_w0_0" index="0" allow="pedestrian" speed="1.00" length="3.30" width="3.20" shape="786634.61,1435148.52 786637.80,1435148.79 786631.32,1435148.25 786634.51,1435148.52"/>
    </edge>
    <edge id=":421264381_w0" function="walkingarea">
        <lane id=":421264381_w0_0" index="0" allow="pedestrian" speed="1.00" length="3.30" width="3.20" shape="786596.51,1435730.70 786593.31,1435730.54 786599.81,1435730.86 786596.61,1435730.70"/>
    </edge>
    <edge id=":423744833_w0" function="walkingarea">
        <lane id=":423744833_w0_0" index="0" allow="pedestrian" speed="1.00" length="3.30" width="3.20" shape="786746.96,1435737.05 786743.76,1435736.89 786750.26,1435737.21 786747.06,1435737.05"/>
    </edge>
    <edge id=":423744839_0" function="internal">
        <lane id=":423744839_0_0" index="0" disallow="tram rail_urban rail rail_electric ship" speed="13.89" length="5.16" shape="786769.63,1435400.62 786768.21,1435400.76 786767.17,1435401.32 786766.52,1435402.28 786766.25,1435403.65"/>
    </edge>
    <edge id=":423744839_1" function="internal">
        <lane id=":423744839_1_0" index="0" disallow="tram rail_urban rail rail_electric ship" speed="13.89" length="9.65" shape="786769.63,1435400.62 786759.99,1435400.27"/>
    </edge>
    <edge id=":423744839_2" function="internal">
        <lane id=":423744839_2_0" index="0" disallow="tram rail_urban rail rail_electric ship" speed="13.89" length="10.49" shape="786769.63,1435400.62 786766.79,1435400.10 786764.82,1435398.80 786763.73,1435396.71 786763.53,1435393.82"/>
    </edge>
    <edge id=":423744839_3" function="internal">
        <lane id=":423744839_3_0" index="0" disallow="tram rail_urban rail rail_electric ship" speed="13.89" length="5.04" shape="786766.82,1435394.06 786766.92,1435395.44 786767.44,1435396.45 786768.38,1435397.07 786769.75,1435397.32"/>
    </edge>
    <edge id=":423744839_4" function="internal">
        <lane id=":423744839_4_0" index="0" disallow="tram rail_urban rail rail_electric ship" speed="13.89" length="9.61" shape="786766.82,1435394.06 786766.25,1435403.65"/>
    </edge>
    <edge id=":423744839_5" function="internal">
        <lane id=":423744839_5_0" index="0" disallow="tram rail_urban rail rail_electric ship" speed="13.89" length="10.45" shape="786766.82,1435394.06 786766.22,1435396.86 786764.88,1435398.83 786762.80,1435399.96 786759.99,1435400.27"/>
    </edge>
    <edge id=":423744839_6" function="internal">
        <lane id=":423744839_6_0" index="0" disallow="tram rail_urban rail rail_electric ship" speed="13.89" length="5.26" shape="786760.11,1435396.97 786761.52,1435396.81 786762.56,1435396.24 786763.23,1435395.24 786763.53,1435393.82"/>
    </edge>
    <edge id=":423744839_7" function="internal">
        <lane id=":423744839_7_0" index="0" disallow="tram rail_urban rail rail_electric ship" speed="13.89" length="9.65" shape="786760.11,1435396.97 786769.75,1435397.32"/>
    </edge>
    <edge id=":423744839_8" function="internal">
        <lane id=":423744839_8_0" index="0" disallow="tram rail_urban rail rail_electric ship" speed="13.89" length="10.38" shape="786760.11,1435396.97 786762.91,1435397.47 786764.87,1435398.76 786765.98,1435400.81 786766.25,1435403.65"/>
    </edge>
    <edge id=":423744839_9" function="internal">
        <lane id=":423744839_9_0" index="0" disallow="tram rail_urban rail rail_electric ship" speed="13.89" length="5.01" shape="786762.95,1435403.49 786762.82,1435402.12 786762.29,1435401.13 786761.34,1435400.51 786759.99,1435400.27"/>
    </edge>
    <edge id=":423744839_10" function="internal">
        <lane id=":423744839_10_0" index="0" disallow="tram rail_urban rail rail_electric ship" speed="13.89" length="9.69" shape="786762.95,1435403.49 786763.53,1435393.82"/>
    </edge>
    <edge id=":423744839_11" function="internal">
        <lane id=":423744839_11_0" index="0" disallow="tram rail_urban rail rail_electric ship" speed="13.89" length="10.44" shape="786762.95,1435403.49 786763.49,1435400.70 786764.81,1435398.74 786766.89,1435397.62 786769.75,1435397.32"/>
    </edge>
    <edge id=":423744839_w0" function="walkingarea">
        <lane id=":423744839_w0_0" index="0" allow="pedestrian" speed="1.00" length="7.32" width="3.20" shape="786769.57,1435402.22 786769.69,1435399.02 786769.69,1435398.92 786769.81,1435395.72 786768.41,1435394.17 786765.22,1435393.94 786765.12,1435393.94 786761.93,1435393.71 786760.16,1435395.37 786760.05,1435398.57 786760.04,1435398.67 786759.93,1435401.86 786761.36,1435403.42 786764.55,1435403.57 786764.65,1435403.57 786767.85,1435403.73"/>
    </edge>
    <edge id=":423744840_0" function="internal">
        <lane id=":423744840_0_0" index="0" disallow="tram rail_urban rail rail_electric ship" speed="18.05" length="5.07" shape="786773.91,1435337.24 786772.55,1435337.37 786771.55,1435337.92 786770.91,1435338.88 786770.62,1435340.26"/>
    </edge>
    <edge id=":423744840_1" function="internal">
        <lane id=":423744840_1_0" index="0" disallow="tram rail_urban rail rail_electric ship" speed="22.22" length="9.50" shape="786773.91,1435337.24 786764.42,1435336.75"/>
    </edge>
    <edge id=":423744840_2" function="internal">
        <lane id=":423744840_2_0" index="0" disallow="tram rail_urban rail rail_electric ship" speed="22.22" length="9.50" shape="786764.59,1435333.45 786774.08,1435333.95"/>
    </edge>
    <edge id=":423744840_3" function="internal">
        <lane id=":423744840_3_0" index="0" disallow="tram rail_urban rail rail_electric ship" speed="18.05" length="10.41" shape="786764.59,1435333.45 786767.40,1435334.00 786769.34,1435335.32 786770.41,1435337.41 786770.62,1435340.26"/>
    </edge>
    <edge id=":423744840_4" function="internal">
        <lane id=":423744840_4_0" index="0" disallow="tram rail_urban rail rail_electric ship" speed="18.05" length="5.02" shape="786767.33,1435340.03 786767.23,1435338.66 786766.71,1435337.65 786765.77,1435337.01 786764.42,1435336.75"/>
    </edge>
    <edge id=":423744840_5" function="internal">