<?xml version="1.0" encoding="UTF-8"?>

<!-- generated on Sunday 28 January 2018 11:13:36 AM IST by Netedit Version 0.32.0
<?xml version="1.0" encoding="UTF-8"?>

<configuration xmlns:xsi="http://www.w3.org/2001/XMLSchema-instance" xsi:noNamespaceSchemaLocation="http://sumo.dlr.de/xsd/netconvertConfiguration.xsd">

    <input>
        <osm-files value="map.osm"/>
    </input>

    <output>
        <output-file value="/home/eudie/Study/Projects/traffic/sony_signal_1/sony_signal_1.net.xml"/>
    </output>

    <projection>
        <proj.utm value="true"/>
    </projection>

    <processing>
        <no-turnarounds value="true"/>
        <offset.disable-normalization value="true"/>
    </processing>

</configuration>
-->

<net version="0.27" xmlns:xsi="http://www.w3.org/2001/XMLSchema-instance" xsi:noNamespaceSchemaLocation="http://sumo.dlr.de/xsd/net_file.xsd">

    <location netOffset="0.00,0.00" convBoundary="785963.86,1434478.66,787223.89,1435737.05" origBoundary="77.635882,12.962565,77.647490,12.973918" projParameter="+proj=utm +zone=43 +ellps=WGS84 +datum=WGS84 +units=m +no_defs"/>

    <type id="highway.bridleway" priority="1" numLanes="1" speed="2.78" allow="pedestrian" oneway="1" width="2.00"/>
    <type id="highway.bus_guideway" priority="1" numLanes="1" speed="8.33" allow="bus" oneway="1"/>
    <type id="highway.cycleway" priority="1" numLanes="1" speed="5.56" allow="bicycle" oneway="0" width="1.00"/>
    <type id="highway.footway" priority="1" numLanes="1" speed="2.78" allow="pedestrian" oneway="1" width="2.00"/>
    <type id="highway.ford" priority="1" numLanes="1" speed="2.78" allow="army" oneway="0"/>
    <type id="highway.living_street" priority="3" numLanes="1" speed="2.78" disallow="tram rail_urban rail rail_electric ship" oneway="0"/>
    <type id="highway.motorway" priority="13" numLanes="2" speed="44.44" allow="private emergency authority army vip passenger hov taxi bus coach delivery truck trailer motorcycle evehicle custom1 custom2" oneway="1"/>
    <type id="highway.motorway_link" priority="12" numLanes="1" speed="22.22" allow="private emergency authority army vip passenger hov taxi bus coach delivery truck trailer motorcycle evehicle custom1 custom2" oneway="1"/>
    <type id="highway.path" priority="1" numLanes="1" speed="2.78" allow="bicycle pedestrian" oneway="1" width="2.00"/>
    <type id="highway.pedestrian" priority="1" numLanes="1" speed="2.78" allow="pedestrian" oneway="1" width="2.00"/>
    <type id="highway.primary" priority="9" numLanes="2" speed="27.78" disallow="tram rail_urban rail rail_electric ship" oneway="0"/>
    <type id="highway.primary_link" priority="8" numLanes="1" speed="22.22" disallow="tram rail_urban rail rail_electric ship" oneway="0"/>
    <type id="highway.raceway" priority="14" numLanes="2" speed="83.33" allow="vip" oneway="0"/>
    <type id="highway.residential" priority="4" numLanes="1" speed="13.89" disallow="tram rail_urban rail rail_electric ship" oneway="0"/>
    <type id="highway.secondary" priority="7" numLanes="2" speed="27.78" disallow="tram rail_urban rail rail_electric ship" oneway="0"/>
    <type id="highway.secondary_link" priority="6" numLanes="1" speed="22.22" disallow="tram rail_urban rail rail_electric ship" oneway="0"/>
    <type id="highway.service" priority="2" numLanes="1" speed="5.56" allow="delivery bicycle pedestrian" oneway="0"/>
    <type id="highway.services" priority="1" numLanes="1" speed="8.33" disallow="tram rail_urban rail rail_electric ship" oneway="0"/>
    <type id="highway.stairs" priority="1" numLanes="1" speed="1.39" allow="pedestrian" oneway="1" width="2.00"/>
    <type id="highway.step" priority="1" numLanes="1" speed="1.39" allow="pedestrian" oneway="1" width="2.00"/>
    <type id="highway.steps" priority="1" numLanes="1" speed="1.39" allow="pedestrian" oneway="1" width="2.00"/>
    <type id="highway.tertiary" priority="6" numLanes="1" speed="22.22" disallow="tram rail_urban rail rail_electric ship" oneway="0"/>
    <type id="highway.tertiary_link" priority="5" numLanes="1" speed="22.22" disallow="tram rail_urban rail rail_electric ship" oneway="0"/>
    <type id="highway.track" priority="1" numLanes="1" speed="5.56" disallow="tram rail_urban rail rail_electric ship" oneway="0"/>
    <type id="highway.trunk" priority="11" numLanes="2" speed="27.78" disallow="tram rail_urban rail rail_electric bicycle pedestrian ship" oneway="0"/>
    <type id="highway.trunk_link" priority="10" numLanes="1" speed="22.22" disallow="tram rail_urban rail rail_electric bicycle pedestrian ship" oneway="0"/>
    <type id="highway.unclassified" priority="5" numLanes="1" speed="13.89" disallow="tram rail_urban rail rail_electric ship" oneway="0"/>
    <type id="highway.unsurfaced" priority="1" numLanes="1" speed="8.33" disallow="tram rail_urban rail rail_electric ship" oneway="0"/>
    <type id="railway.light_rail" priority="15" numLanes="1" speed="27.78" allow="rail_urban" oneway="1"/>
    <type id="railway.preserved" priority="15" numLanes="1" speed="27.78" allow="rail" oneway="1"/>
    <type id="railway.rail" priority="15" numLanes="1" speed="83.33" allow="rail rail_electric" oneway="1"/>
    <type id="railway.subway" priority="15" numLanes="1" speed="27.78" allow="rail_urban" oneway="1"/>
    <type id="railway.tram" priority="15" numLanes="1" speed="13.89" allow="tram" oneway="1"/>

    <edge id=":286681987_0" function="internal">
        <lane id=":286681987_0_0" index="0" disallow="tram rail_urban rail rail_electric ship" speed="13.89" length="9.64" shape="786801.87,1435199.03 786801.41,1435208.66"/>
    </edge>
    <edge id=":286681987_1" function="internal">
        <lane id=":286681987_1_0" index="0" disallow="tram rail_urban rail rail_electric ship" speed="13.89" length="10.41" shape="786801.87,1435199.03 786801.37,1435201.85 786800.09,1435203.82 786798.02,1435204.93 786795.17,1435205.19"/>
    </edge>
    <edge id=":286681987_2" function="internal">
        <lane id=":286681987_2_0" index="0" disallow="tram rail_urban rail rail_electric ship" speed="13.89" length="5.02" shape="786795.34,1435201.89 786796.71,1435201.77 786797.71,1435201.23 786798.33,1435200.28 786798.57,1435198.93"/>
    </edge>
    <edge id=":286681987_3" function="internal">
        <lane id=":286681987_3_0" index="0" disallow="tram rail_urban rail rail_electric ship" speed="13.89" length="10.39" shape="786795.34,1435201.89 786798.15,1435202.44 786800.09,1435203.75 786801.18,1435205.83 786801.41,1435208.66"/>
    </edge>
    <edge id=":286681987_4" function="internal">
        <lane id=":286681987_4_0" index="0" disallow="tram rail_urban rail rail_electric ship" speed="13.89" length="5.03" shape="786798.12,1435208.46 786798.01,1435207.09 786797.48,1435206.09 786796.53,1435205.45 786795.17,1435205.19"/>
    </edge>
    <edge id=":286681987_5" function="internal">
        <lane id=":286681987_5_0" index="0" disallow="tram rail_urban rail rail_electric ship" speed="13.89" length="9.55" shape="786798.12,1435208.46 786798.57,1435198.93"/>
    </edge>
    <edge id=":286681996_0" function="internal">
        <lane id=":286681996_0_0" index="0" disallow="tram rail_urban rail rail_electric ship" speed="13.89" length="9.39" shape="786797.97,1435264.61 786797.50,1435273.99"/>
    </edge>
    <edge id=":286681996_1" function="internal">
        <lane id=":286681996_1_0" index="0" disallow="tram rail_urban rail rail_electric ship" speed="13.89" length="10.27" shape="786797.97,1435264.61 786797.41,1435267.36 786796.10,1435269.28 786794.04,1435270.37 786791.24,1435270.62"/>
    </edge>
    <edge id=":286681996_2" function="internal">
        <lane id=":286681996_2_0" index="0" disallow="tram rail_urban rail rail_electric ship" speed="13.89" length="4.99" shape="786791.41,1435267.33 786792.77,1435267.20 786793.77,1435266.67 786794.40,1435265.74 786794.68,1435264.41"/>
    </edge>
    <edge id=":286681996_3" function="internal">
        <lane id=":286681996_3_0" index="0" disallow="tram rail_urban rail rail_electric ship" speed="13.89" length="10.27" shape="786791.41,1435267.33 786794.17,1435267.86 786796.10,1435269.15 786797.21,1435271.20 786797.50,1435273.99"/>
    </edge>
    <edge id=":286681996_4" function="internal">
        <lane id=":286681996_4_0" index="0" disallow="tram rail_urban rail rail_electric ship" speed="13.89" length="4.99" shape="786794.20,1435273.86 786794.06,1435272.50 786793.52,1435271.51 786792.58,1435270.88 786791.24,1435270.62"/>
    </edge>
    <edge id=":286681996_5" function="internal">
        <lane id=":286681996_5_0" index="0" disallow="tram rail_urban rail rail_electric ship" speed="13.89" length="9.46" shape="786794.20,1435273.86 786794.68,1435264.41"/>
    </edge>
    <edge id=":286682015_0" function="internal">
        <lane id=":286682015_0_0" index="0" disallow="tram rail_urban rail rail_electric ship" speed="22.22" length="9.50" shape="786798.00,1435338.51 786788.51,1435338.01"/>
    </edge>
    <edge id=":286682015_1" function="internal">
        <lane id=":286682015_1_0" index="0" disallow="tram rail_urban rail rail_electric ship" speed="18.05" length="10.33" shape="786798.00,1435338.51 786795.25,1435337.97 786793.32,1435336.66 786792.21,1435334.59 786791.92,1435331.76"/>
    </edge>
    <edge id=":286682015_2" function="internal">
        <lane id=":286682015_2_0" index="0" disallow="tram rail_urban rail rail_electric ship" speed="18.05" length="5.05" shape="786795.22,1435331.89 786795.36,1435333.29 786795.90,1435334.30 786796.84,1435334.95 786798.17,1435335.22"/>
    </edge>
    <edge id=":286682015_3" function="internal">
        <lane id=":286682015_3_0" index="0" disallow="tram rail_urban rail rail_electric ship" speed="18.05" length="10.39" shape="786795.22,1435331.89 786794.71,1435334.70 786793.42,1435336.65 786791.35,1435337.76 786788.51,1435338.01"/>
    </edge>
    <edge id=":286682015_4" function="internal">
        <lane id=":286682015_4_0" index="0" disallow="tram rail_urban rail rail_electric ship" speed="18.05" length="5.02" shape="786788.68,1435334.72 786790.06,1435334.59 786791.05,1435334.06 786791.68,1435333.12 786791.92,1435331.76"/>
    </edge>
    <edge id=":286682015_5" function="internal">
        <lane id=":286682015_5_0" index="0" disallow="tram rail_urban rail rail_electric ship" speed="22.22" length="9.50" shape="786788.68,1435334.72 786798.17,1435335.22"/>
    </edge>
    <edge id=":3530437516_0" function="internal">
        <lane id=":3530437516_0_0" index="0" disallow="tram rail_urban rail rail_electric ship" speed="18.05" length="5.01" shape="786431.08,1435316.09 786429.71,1435316.17 786428.70,1435316.67 786428.04,1435317.60 786427.75,1435318.94"/>
    </edge>
    <edge id=":3530437516_1" function="internal">
        <lane id=":3530437516_1_0" index="0" disallow="tram rail_urban rail rail_electric ship" speed="22.22" length="9.50" shape="786431.08,1435316.09 786421.61,1435315.31"/>
    </edge>
    <edge id=":3530437516_2" function="internal">
        <lane id=":3530437516_2_0" index="0" disallow="tram rail_urban rail rail_electric ship" speed="22.22" length="9.50" shape="786421.88,1435312.02 786431.35,1435312.80"/>
    </edge>
    <edge id=":3530437516_3" function="internal">
        <lane id=":3530437516_3_0" index="0" disallow="tram rail_urban rail rail_electric ship" speed="18.05" length="10.32" shape="786421.88,1435312.02 786424.62,1435312.65 786426.51,1435314.01 786427.56,1435316.11 786427.75,1435318.94"/>
    </edge>
    <edge id=":3530437516_4" function="internal">
        <lane id=":3530437516_4_0" index="0" disallow="tram rail_urban rail rail_electric ship" speed="18.05" length="5.04" shape="786424.46,1435318.71 786424.37,1435317.32 786423.86,1435316.29 786422.94,1435315.62 786421.61,1435315.31"/>
    </edge>
    <edge id=":3530437516_5" function="internal">
        <lane id=":3530437516_5_0" index="0" disallow="tram rail_urban rail rail_electric ship" speed="18.05" length="10.38" shape="786424.46,1435318.71 786425.06,1435315.93 786426.41,1435314.01 786428.51,1435312.97 786431.35,1435312.80"/>
    </edge>
    <edge id=":3532729011_0" function="internal">
        <lane id=":3532729011_0_0" index="0" disallow="tram rail_urban rail rail_electric ship" speed="13.89" length="9.50" shape="786434.96,1435259.66 786425.49,1435258.92"/>
    </edge>
    <edge id=":3532729011_1" function="internal">
        <lane id=":3532729011_1_0" index="0" disallow="tram rail_urban rail rail_electric ship" speed="13.89" length="10.33" shape="786434.96,1435259.66 786432.23,1435259.04 786430.34,1435257.68 786429.28,1435255.58 786429.05,1435252.74"/>
    </edge>
    <edge id=":3532729011_2" function="internal">
        <lane id=":3532729011_2_0" index="0" disallow="tram rail_urban rail rail_electric ship" speed="13.89" length="5.08" shape="786432.34,1435252.94 786432.45,1435254.35 786432.97,1435255.39 786433.89,1435256.06 786435.22,1435256.37"/>
    </edge>
    <edge id=":3532729011_3" function="internal">
        <lane id=":3532729011_3_0" index="0" disallow="tram rail_urban rail rail_electric ship" speed="13.89" length="10.42" shape="786432.34,1435252.94 786431.77,1435255.74 786430.44,1435257.67 786428.35,1435258.73 786425.49,1435258.92"/>
    </edge>
    <edge id=":3532729011_4" function="internal">
        <lane id=":3532729011_4_0" index="0" disallow="tram rail_urban rail rail_electric ship" speed="13.89" length="5.02" shape="786425.75,1435255.63 786427.12,1435255.54 786428.13,1435255.03 786428.77,1435254.10 786429.05,1435252.74"/>
    </edge>
    <edge id=":3532729011_5" function="internal">
        <lane id=":3532729011_5_0" index="0" disallow="tram rail_urban rail rail_electric ship" speed="13.89" length="9.50" shape="786425.75,1435255.63 786435.22,1435256.37"/>
    </edge>
    <edge id=":412119404_0" function="internal">
        <lane id=":412119404_0_0" index="0" disallow="tram rail_urban rail rail_electric ship" speed="13.89" length="5.11" shape="786621.40,1435395.22 786619.97,1435395.36 786618.92,1435395.89 786618.26,1435396.82 786617.97,1435398.15"/>
    </edge>
    <edge id=":412119404_1" function="internal">
        <lane id=":412119404_1_0" index="0" disallow="tram rail_urban rail rail_electric ship" speed="13.89" length="10.46" shape="786621.40,1435395.22 786618.57,1435394.71 786616.60,1435393.41 786615.51,1435391.33 786615.28,1435388.46"/>
    </edge>
    <edge id=":412119404_2" function="internal">
        <lane id=":412119404_2_0" index="0" disallow="tram rail_urban rail rail_electric ship" speed="13.89" length="5.03" shape="786618.58,1435388.67 786618.69,1435390.05 786619.21,1435391.05 786620.16,1435391.67 786621.52,1435391.92"/>
    </edge>
    <edge id=":412119404_3" function="internal">
        <lane id=":412119404_3_0" index="0" disallow="tram rail_urban rail rail_electric ship" speed="13.89" length="9.50" shape="786618.58,1435388.67 786617.97,1435398.15"/>
    </edge>
    <edge id=":412119404_4" function="internal">
        <lane id=":412119404_4_0" index="0" disallow="tram rail_urban rail rail_electric ship" speed="13.89" length="9.51" shape="786614.68,1435397.94 786615.28,1435388.46"/>
    </edge>
    <edge id=":412119404_5" function="internal">
        <lane id=":412119404_5_0" index="0" disallow="tram rail_urban rail rail_electric ship" speed="13.89" length="10.33" shape="786614.68,1435397.94 786615.25,1435395.22 786616.59,1435393.31 786618.67,1435392.21 786621.52,1435391.92"/>
    </edge>
    <edge id=":412119575_0" function="internal">
        <lane id=":412119575_0_0" index="0" disallow="tram rail_urban rail rail_electric ship" speed="18.05" length="5.14" shape="786625.59,1435329.47 786624.18,1435329.59 786623.15,1435330.13 786622.49,1435331.09 786622.20,1435332.46"/>
    </edge>
    <edge id=":412119575_1" function="internal">
        <lane id=":412119575_1_0" index="0" speed="18.05" length="9.61" shape="786625.59,1435329.47 786615.99,1435328.97"/>
    </edge>
    <edge id=":412119575_2" function="internal">
        <lane id=":412119575_2_0" index="0" disallow="tram rail_urban rail rail_electric ship" speed="18.05" length="10.43" shape="786625.59,1435329.47 786622.78,1435328.91 786620.84,1435327.59 786619.77,1435325.50 786619.58,1435322.64"/>
    </edge>
    <edge id=":412119575_3" function="internal">
        <lane id=":412119575_3_0" index="0" disallow="tram rail_urban rail rail_electric ship" speed="18.05" length="5.03" shape="786622.87,1435322.88 786622.96,1435324.26 786623.47,1435325.27 786624.41,1435325.91 786625.76,1435326.17"/>
    </edge>
    <edge id=":412119575_4" function="internal">
        <lane id=":412119575_4_0" index="0" disallow="tram rail_urban rail rail_electric ship" speed="13.89" length="9.60" shape="786622.87,1435322.88 786622.20,1435332.46"/>
    </edge>
    <edge id=":412119575_5" function="internal">
        <lane id=":412119575_5_0" index="0" speed="13.89" length="10.42" shape="786622.87,1435322.88 786622.26,1435325.67 786620.91,1435327.61 786618.82,1435328.71 786615.99,1435328.97"/>
    </edge>
    <edge id=":412119575_6" function="internal">
        <lane id=":412119575_6_0" index="0" disallow="tram rail_urban rail rail_electric ship" speed="13.89" length="5.19" shape="786616.16,1435325.68 786617.56,1435325.55 786618.60,1435325.00 786619.27,1435324.03 786619.58,1435322.64"/>
    </edge>
    <edge id=":412119575_7" function="internal">
        <lane id=":412119575_7_0" index="0" disallow="tram rail_urban rail rail_electric ship" speed="18.05" length="9.62" shape="786616.16,1435325.68 786625.76,1435326.17"/>
    </edge>
    <edge id=":412119575_8" function="internal">
        <lane id=":412119575_8_0" index="0" disallow="tram rail_urban rail rail_electric ship" speed="13.89" length="10.39" shape="786616.16,1435325.68 786618.96,1435326.22 786620.90,1435327.54 786621.98,1435329.61 786622.20,1435332.46"/>
    </edge>
    <edge id=":412119575_9" function="internal">
        <lane id=":412119575_9_0" index="0" speed="13.89" length="5.02" shape="786618.91,1435332.25 786618.80,1435330.87 786618.28,1435329.87 786617.34,1435329.24 786615.99,1435328.97"/>
    </edge>
    <edge id=":412119575_10" function="internal">
        <lane id=":412119575_10_0" index="0" disallow="tram rail_urban rail rail_electric ship" speed="13.89" length="9.63" shape="786618.91,1435332.25 786619.58,1435322.64"/>
    </edge>
    <edge id=":412119575_11" function="internal">
        <lane id=":412119575_11_0" index="0" disallow="tram rail_urban rail rail_electric ship" speed="18.05" length="10.42" shape="786618.91,1435332.25 786619.49,1435329.46 786620.83,1435327.52 786622.92,1435326.43 786625.76,1435326.17"/>
    </edge>
    <edge id=":423744839_0" function="internal">
        <lane id=":423744839_0_0" index="0" disallow="tram rail_urban rail rail_electric ship" speed="13.89" length="5.16" shape="786769.63,1435400.62 786768.20,1435400.76 786767.17,1435401.32 786766.52,1435402.28 786766.25,1435403.65"/>
    </edge>
    <edge id=":423744839_1" function="internal">
        <lane id=":423744839_1_0" index="0" disallow="tram rail_urban rail rail_electric ship" speed="13.89" length="9.65" shape="786769.63,1435400.62 786759.98,1435400.27"/>
    </edge>
    <edge id=":423744839_2" function="internal">
        <lane id=":423744839_2_0" index="0" disallow="tram rail_urban rail rail_electric ship" speed="13.89" length="10.49" shape="786769.63,1435400.62 786766.78,1435400.10 786764.82,1435398.80 786763.73,1435396.71 786763.52,1435393.83"/>
    </edge>
    <edge id=":423744839_3" function="internal">
        <lane id=":423744839_3_0" index="0" disallow="tram rail_urban rail rail_electric ship" speed="13.89" length="5.04" shape="786766.82,1435394.06 786766.92,1435395.44 786767.44,1435396.45 786768.38,1435397.07 786769.75,1435397.32"/>
    </edge>
    <edge id=":423744839_4" function="internal">
        <lane id=":423744839_4_0" index="0" disallow="tram rail_urban rail rail_electric ship" speed="13.89" length="9.61" shape="786766.82,1435394.06 786766.25,1435403.65"/>
    </edge>
    <edge id=":423744839_5" function="internal">
        <lane id=":423744839_5_0" index="0" disallow="tram rail_urban rail rail_electric ship" speed="13.89" length="10.45" shape="786766.82,1435394.06 786766.22,1435396.86 786764.88,1435398.83 786762.80,1435399.97 786759.98,1435400.27"/>
    </edge>
    <edge id=":423744839_6" function="internal">
        <lane id=":423744839_6_0" index="0" disallow="tram rail_urban rail rail_electric ship" speed="13.89" length="5.26" shape="786760.10,1435396.97 786761.51,1435396.82 786762.55,1435396.24 786763.22,1435395.24 786763.52,1435393.83"/>
    </edge>
    <edge id=":423744839_7" function="internal">
        <lane id=":423744839_7_0" index="0" disallow="tram rail_urban rail rail_electric ship" speed="13.89" length="9.65" shape="786760.10,1435396.97 786769.75,1435397.32"/>
    </edge>
    <edge id=":423744839_8" function="internal">
        <lane id=":423744839_8_0" index="0" disallow="tram rail_urban rail rail_electric ship" speed="13.89" length="10.38" shape="786760.10,1435396.97 786762.91,1435397.48 786764.87,1435398.76 786765.98,1435400.82 786766.25,1435403.65"/>
    </edge>
    <edge id=":423744839_9" function="internal">
        <lane id=":423744839_9_0" index="0" disallow="tram rail_urban rail rail_electric ship" speed="13.89" length="5.01" shape="786762.95,1435403.49 786762.82,1435402.13 786762.28,1435401.13 786761.34,1435400.51 786759.98,1435400.27"/>
    </edge>
    <edge id=":423744839_10" function="internal">
        <lane id=":423744839_10_0" index="0" disallow="tram rail_urban rail rail_electric ship" speed="13.89" length="9.69" shape="786762.95,1435403.49 786763.52,1435393.83"/>
    </edge>
    <edge id=":423744839_11" function="internal">
        <lane id=":423744839_11_0" index="0" disallow="tram rail_urban rail rail_electric ship" speed="13.89" length="10.44" shape="786762.95,1435403.49 786763.49,1435400.70 786764.80,1435398.75 786766.89,1435397.62 786769.75,1435397.32"/>
    </edge>
    <edge id=":423744840_0" function="internal">
        <lane id=":423744840_0_0" index="0" disallow="tram rail_urban rail rail_electric ship" speed="18.05" length="5.07" shape="786773.91,1435337.24 786772.55,1435337.37 786771.55,1435337.92 786770.90,1435338.88 786770.61,1435340.26"/>
    </edge>
    <edge id=":423744840_1" function="internal">
        <lane id=":423744840_1_0" index="0" disallow="tram rail_urban rail rail_electric ship" speed="22.22" length="9.50" shape="786773.91,1435337.24 786764.42,1435336.75"/>
    </edge>
    <edge id=":423744840_2" function="internal">
        <lane id=":423744840_2_0" index="0" disallow="tram rail_urban rail rail_electric ship" speed="22.22" length="9.50" shape="786764.59,1435333.45 786774.08,1435333.95"/>
    </edge>
    <edge id=":423744840_3" function="internal">
        <lane id=":423744840_3_0" index="0" disallow="tram rail_urban rail rail_electric ship" speed="18.05" length="10.41" shape="786764.59,1435333.45 786767.40,1435334.00 786769.34,1435335.32 786770.41,1435337.41 786770.61,1435340.26"/>
    </edge>
    <edge id=":423744840_4" function="internal">
        <lane id=":423744840_4_0" index="0" disallow="tram rail_urban rail rail_electric ship" speed="18.05" length="5.02" shape="786767.32,1435340.03 786767.22,1435338.66 786766.71,1435337.65 786765.77,1435337.01 786764.42,1435336.75"/>
    </edge>
    <edge id=":423744840_5" function="internal">
        <lane id=":423744840_5_0" index="0" disallow="tram rail_urban rail rail_electric ship" speed="18.05" length="10.33" shape="786767.32,1435340.03 786767.91,1435337.25 786769.24,1435335.30 786771.29,1435334.20 786774.08,1435333.95"/>
    </edge>
    <edge id=":423744843_0" function="internal">
        <lane id=":423744843_0_0" index="0" disallow="tram rail_urban rail rail_electric ship" speed="13.89" length="5.09" shape="786630.60,1435262.37 786629.18,1435262.49 786628.14,1435263.01 786627.47,1435263.94 786627.17,1435265.26"/>
    </edge>
    <edge id=":423744843_1" function="internal">
        <lane id=":423744843_1_0" index="0" disallow="tram rail_urban rail rail_electric ship" speed="13.89" length="10.44" shape="786630.60,1435262.37 786627.79,1435261.82 786625.84,1435260.50 786624.78,1435258.41 786624.58,1435255.54"/>
    </edge>
    <edge id=":423744843_2" function="internal">
        <lane id=":423744843_2_0" index="0" disallow="tram rail_urban rail rail_electric ship" speed="13.89" length="5.03" shape="786627.87,1435255.79 786627.97,1435257.17 786628.48,1435258.17 786629.42,1435258.81 786630.77,1435259.08"/>
    </edge>
    <edge id=":423744843_3" function="internal">
        <lane id=":423744843_3_0" index="0" disallow="tram rail_urban rail rail_electric ship" speed="13.89" length="9.50" shape="786627.87,1435255.79 786627.17,1435265.26"/>
    </edge>
    <edge id=":423744843_4" function="internal">
        <lane id=":423744843_4_0" index="0" disallow="tram rail_urban rail rail_electric ship" speed="13.89" length="9.50" shape="786623.87,1435265.02 786624.58,1435255.54"/>
    </edge>
    <edge id=":423744843_5" function="internal">
        <lane id=":423744843_5_0" index="0" disallow="tram rail_urban rail rail_electric ship" speed="13.89" length="10.33" shape="786623.87,1435265.02 786624.48,1435262.30 786625.83,1435260.40 786627.93,1435259.33 786630.77,1435259.08"/>
    </edge>
    <edge id=":423744845_0" function="internal">
        <lane id=":423744845_0_0" index="0" disallow="tram rail_urban rail rail_electric ship" speed="13.89" length="5.12" shape="786635.49,1435197.08 786634.06,1435197.20 786633.00,1435197.72 786632.32,1435198.65 786632.02,1435199.97"/>
    </edge>
    <edge id=":423744845_1" function="internal">
        <lane id=":423744845_1_0" index="0" disallow="tram rail_urban rail rail_electric ship" speed="13.89" length="10.48" shape="786635.49,1435197.08 786632.66,1435196.53 786630.71,1435195.20 786629.65,1435193.10 786629.48,1435190.22"/>
    </edge>
    <edge id=":423744845_2" function="internal">
        <lane id=":423744845_2_0" index="0" disallow="tram rail_urban rail rail_electric ship" speed="13.89" length="5.04" shape="786632.77,1435190.49 786632.85,1435191.87 786633.36,1435192.88 786634.29,1435193.52 786635.65,1435193.79"/>
    </edge>
    <edge id=":423744845_3" function="internal">
        <lane id=":423744845_3_0" index="0" disallow="tram rail_urban rail rail_electric ship" speed="13.89" length="9.51" shape="786632.77,1435190.49 786632.02,1435199.97"/>
    </edge>
    <edge id=":423744845_4" function="internal">
        <lane id=":423744845_4_0" index="0" disallow="tram rail_urban rail rail_electric ship" speed="13.89" length="9.54" shape="786628.73,1435199.73 786629.48,1435190.22"/>
    </edge>
    <edge id=":423744845_5" function="internal">
        <lane id=":423744845_5_0" index="0" disallow="tram rail_urban rail rail_electric ship" speed="13.89" length="10.35" shape="786628.73,1435199.73 786629.34,1435197.01 786630.70,1435195.11 786632.80,1435194.04 786635.65,1435193.79"/>
    </edge>
    <edge id=":448306746_0" function="internal">
        <lane id=":448306746_0_0" index="0" disallow="tram rail_urban rail rail_electric ship" speed="13.89" length="5.13" shape="786677.57,1435397.27 786676.22,1435397.42 786675.22,1435398.00 786674.58,1435398.99 786674.30,1435400.40"/>
    </edge>
    <edge id=":448306746_1" function="internal">
        <lane id=":448306746_1_0" index="0" disallow="tram rail_urban rail rail_electric ship" speed="13.89" length="9.50" shape="786677.57,1435397.27 786668.07,1435396.92"/>
    </edge>
    <edge id=":448306746_2" function="internal">
        <lane id=":448306746_2_0" index="0" disallow="tram rail_urban rail rail_electric ship" speed="13.89" length="9.50" shape="786668.19,1435393.62 786677.69,1435393.97"/>
    </edge>
    <edge id=":448306746_3" function="internal">
        <lane id=":448306746_3_0" index="0" disallow="tram rail_urban rail rail_electric ship" speed="13.89" length="10.48" shape="786668.19,1435393.62 786671.03,1435394.14 786672.99,1435395.44 786674.08,1435397.53 786674.30,1435400.40"/>
    </edge>
    <edge id=":448306746_4" function="internal">
        <lane id=":448306746_4_0" index="0" disallow="tram rail_urban rail rail_electric ship" speed="13.89" length="5.04" shape="786671.00,1435400.18 786670.90,1435398.80 786670.38,1435397.79 786669.43,1435397.17 786668.07,1435396.92"/>
    </edge>
    <edge id=":448306746_5" function="internal">
        <lane id=":448306746_5_0" index="0" disallow="tram rail_urban rail rail_electric ship" speed="13.89" length="10.33" shape="786671.00,1435400.18 786671.59,1435397.38 786672.89,1435395.41 786674.93,1435394.27 786677.69,1435393.97"/>
    </edge>
    <edge id=":448306747_0" function="internal">
        <lane id=":448306747_0_0" index="0" disallow="tram rail_urban rail rail_electric ship" speed="13.89" length="5.14" shape="786723.99,1435398.96 786722.64,1435399.11 786721.65,1435399.69 786721.01,1435400.68 786720.72,1435402.10"/>
    </edge>
    <edge id=":448306747_1" function="internal">
        <lane id=":448306747_1_0" index="0" disallow="tram rail_urban rail rail_electric ship" speed="13.89" length="9.50" shape="786723.99,1435398.96 786714.49,1435398.61"/>
    </edge>
    <edge id=":448306747_2" function="internal">
        <lane id=":448306747_2_0" index="0" disallow="tram rail_urban rail rail_electric ship" speed="13.89" length="9.50" shape="786714.61,1435395.31 786724.11,1435395.66"/>
    </edge>
    <edge id=":448306747_3" function="internal">
        <lane id=":448306747_3_0" index="0" disallow="tram rail_urban rail rail_electric ship" speed="13.89" length="10.49" shape="786714.61,1435395.31 786717.45,1435395.83 786719.42,1435397.13 786720.51,1435399.22 786720.72,1435402.10"/>
    </edge>
    <edge id=":448306747_4" function="internal">
        <lane id=":448306747_4_0" index="0" disallow="tram rail_urban rail rail_electric ship" speed="13.89" length="5.04" shape="786717.42,1435401.87 786717.32,1435400.49 786716.80,1435399.48 786715.86,1435398.86 786714.49,1435398.61"/>
    </edge>