<?xml version="1.0" encoding="UTF-8"?>

<!-- generated on Sun Jan 28 11:21:00 2018 by SUMO polyconvert Version 0.32.0
<?xml version="1.0" encoding="UTF-8"?>

<configuration xmlns:xsi="http://www.w3.org/2001/XMLSchema-instance" xsi:noNamespaceSchemaLocation="http://sumo.dlr.de/xsd/polyconvertConfiguration.xsd">

    <input>
        <net-file value="sony_signal_1.net.xml"/>
        <osm-files value="sony_signal_1.osm"/>
        <type-file value="typemap.xml"/>
    </input>

    <output>
        <output-file value="sony_signal_1.poly.xml"/>
    </output>

    <processing>
        <poi-layer-offset value="5"/>
    </processing>

</configuration>
-->

<additional xmlns:xsi="http://www.w3.org/2001/XMLSchema-instance" xsi:noNamespaceSchemaLocation="http://sumo.dlr.de/xsd/additional_file.xsd">
    <location netOffset="0.00,0.00" convBoundary="785963.86,1434257.47,787223.89,1435737.05" origBoundary="77.635882,12.960558,77.647490,12.973918" projParameter="+proj=utm +zone=43 +ellps=WGS84 +datum=WGS84 +units=m +no_defs"/>

    <poly id="313829229" type="amenity" color="237,199,199" fill="1" layer="-1.00" shape="786708.69,1435351.13 786708.21,1435362.09 786707.98,1435367.24 786720.22,1435367.78 786720.93,1435351.66 786708.69,1435351.13"/>
    <poly id="313829229#1" type="building" color="255,230,230" fill="1" layer="-1.00" shape="786708.69,1435351.13 786708.21,1435362.09 786707.98,1435367.24 786720.22,1435367.78 786720.93,1435351.66 786708.69,1435351.13"/>
    <poly id="342675783" type="building" color="255,230,230" fill="1" layer="-1.00" shape="786647.50,1435366.33 786648.45,1435347.59 786661.93,1435348.27 786660.97,1435367.01 786647.50,1435366.33"/>
    <poly id="342675784" type="building" color="255,230,230" fill="1" layer="-1.00" shape="786632.05,1435365.20 786633.12,1435346.56 786643.28,1435347.14 786642.20,1435365.78 786632.05,1435365.20"/>
    <poly id="342682672" type="building" color="255,230,230" fill="1" layer="-1.00" shape="786662.89,1435367.82 786663.66,1435349.91 786672.69,1435350.29 786671.91,1435368.21 786662.89,1435367.82"/>
    <poly id="342682673" type="building" color="255,230,230" fill="1" layer="-1.00" shape="786675.27,1435368.10 786676.04,1435350.18 786685.06,1435350.56 786684.30,1435368.48 786675.27,1435368.10"/>
    <poly id="342682674" type="building" color="255,230,230" fill="1" layer="-1.00" shape="786691.86,1435368.84 786692.62,1435350.93 786701.65,1435351.31 786700.89,1435369.23 786691.86,1435368.84"/>
    <poly id="342682676" type="building" color="255,230,230" fill="1" layer="-1.00" shape="786738.01,1435369.83 786738.78,1435351.92 786747.81,1435352.30 786747.04,1435370.21 786738.01,1435369.83"/>
    <poly id="342682677" type="building" color="255,230,230" fill="1" layer="-1.00" shape="786752.72,1435370.05 786753.48,1435352.13 786762.51,1435352.52 786761.74,1435370.44 786752.72,1435370.05"/>
    <poly id="342682678" type="building" color="255,230,230" fill="1" layer="-1.00" shape="786751.92,1435390.30 786752.69,1435372.39 786761.71,1435372.77 786760.95,1435390.68 786751.92,1435390.30"/>
    <poly id="342682679" type="building" color="255,230,230" fill="1" layer="-1.00" shape="786738.25,1435388.71 786739.02,1435370.79 786748.05,1435371.17 786747.27,1435389.10 786738.25,1435388.71"/>
    <poly id="342682680" type="building" color="255,230,230" fill="1" layer="-1.00" shape="786724.27,1435388.86 786725.03,1435370.94 786734.06,1435371.32 786733.30,1435389.24 786724.27,1435388.86"/>
    <poly id="342682681" type="building" color="255,230,230" fill="1" layer="-1.00" shape="786709.43,1435387.83 786710.20,1435369.92 786719.22,1435370.30 786718.46,1435388.22 786709.43,1435387.83"/>
    <poly id="342682682" type="building" color="255,230,230" fill="1" layer="-1.00" shape="786697.49,1435387.42 786698.26,1435369.51 786707.29,1435369.89 786706.52,1435387.80 786697.49,1435387.42"/>
    <poly id="342682683" type="building" color="255,230,230" fill="1" layer="-1.00" shape="786684.97,1435387.29 786685.73,1435369.38 786694.76,1435369.76 786694.00,1435387.67 786684.97,1435387.29"/>
    <poly id="342682684" type="building" color="255,230,230" fill="1" layer="-1.00" shape="786670.13,1435386.85 786670.90,1435368.94 786679.92,1435369.32 786679.15,1435387.23 786670.13,1435386.85"/>
    <poly id="342682685" type="building" color="255,230,230" fill="1" layer="-1.00" shape="786654.98,1435386.41 786655.76,1435368.48 786664.79,1435368.87 786664.01,1435386.79 786654.98,1435386.41"/>
    <poly id="342682686" type="building" color="255,230,230" fill="1" layer="-1.00" shape="786641.02,1435385.68 786641.78,1435367.76 786650.81,1435368.14 786650.05,1435386.07 786641.02,1435385.68"/>
    <poly id="342682687" type="building" color="255,230,230" fill="1" layer="-1.00" shape="786627.04,1435385.53 786627.81,1435367.62 786636.84,1435368.00 786636.07,1435385.92 786627.04,1435385.53"/>
    <poly id="342683103" type="building" color="255,230,230" fill="1" layer="-1.00" shape="786634.83,1435320.88 786636.12,1435299.19 786650.36,1435300.02 786649.09,1435321.71 786634.83,1435320.88"/>
    <poly id="342683105" type="building" color="255,230,230" fill="1" layer="-1.00" shape="786653.88,1435321.81 786655.16,1435300.13 786669.42,1435300.95 786668.13,1435322.64 786653.88,1435321.81"/>
    <poly id="342683106" type="building" color="255,230,230" fill="1" layer="-1.00" shape="786672.22,1435322.29 786673.51,1435300.60 786687.75,1435301.44 786686.47,1435323.12 786672.22,1435322.29"/>
    <poly id="342683107" type="building" color="255,230,230" fill="1" layer="-1.00" shape="786691.44,1435322.78 786692.72,1435301.09 786706.97,1435301.92 786705.69,1435323.61 786691.44,1435322.78"/>
    <poly id="342683108" type="building" color="255,230,230" fill="1" layer="-1.00" shape="786710.07,1435323.26 786711.35,1435301.57 786725.60,1435302.41 786724.32,1435324.09 786710.07,1435323.26"/>
    <poly id="342683110" type="building" color="255,230,230" fill="1" layer="-1.00" shape="786728.99,1435324.61 786730.26,1435302.92 786744.52,1435303.75 786743.23,1435325.45 786728.99,1435324.61"/>
    <poly id="342683111" type="building" color="255,230,230" fill="1" layer="-1.00" shape="786747.33,1435325.09 786748.61,1435303.41 786762.85,1435304.24 786761.58,1435325.93 786747.33,1435325.09"/>
    <poly id="342683112" type="building" color="255,230,230" fill="1" layer="-1.00" shape="786768.52,1435330.53 786769.81,1435308.83 786784.06,1435309.66 786782.78,1435331.36 786768.52,1435330.53"/>
    <poly id="342683113" type="building" color="255,230,230" fill="1" layer="-1.00" shape="786767.87,1435301.95 786769.15,1435280.26 786783.41,1435281.08 786782.12,1435302.78 786767.87,1435301.95"/>
    <poly id="342683115" type="building" color="255,230,230" fill="1" layer="-1.00" shape="786656.09,1435297.31 786657.37,1435275.63 786671.63,1435276.46 786670.35,1435298.15 786656.09,1435297.31"/>
    <poly id="342683116" type="building" color="255,230,230" fill="1" layer="-1.00" shape="786674.44,1435297.79 786675.71,1435276.11 786689.97,1435276.94 786688.68,1435298.62 786674.44,1435297.79"/>
    <poly id="342683117" type="building" color="255,230,230" fill="1" layer="-1.00" shape="786693.65,1435298.29 786694.93,1435276.59 786709.18,1435277.43 786707.91,1435299.12 786693.65,1435298.29"/>
    <poly id="342683118" type="building" color="255,230,230" fill="1" layer="-1.00" shape="786712.28,1435298.77 786713.56,1435277.07 786727.82,1435277.91 786726.53,1435299.60 786712.28,1435298.77"/>
    <poly id="342683119" type="building" color="255,230,230" fill="1" layer="-1.00" shape="786731.19,1435300.12 786732.47,1435278.43 786746.73,1435279.27 786745.45,1435300.95 786731.19,1435300.12"/>
    <poly id="342683120" type="building" color="255,230,230" fill="1" layer="-1.00" shape="786749.54,1435300.59 786750.82,1435278.91 786765.07,1435279.74 786763.78,1435301.43 786749.54,1435300.59"/>
    <poly id="342683121" type="building" color="255,230,230" fill="1" layer="-1.00" shape="786770.99,1435235.32 786772.27,1435213.63 786786.53,1435214.46 786785.25,1435236.16 786770.99,1435235.32"/>
    <poly id="342683122" type="building" color="255,230,230" fill="1" layer="-1.00" shape="786645.96,1435220.63 786646.36,1435213.86 786656.49,1435214.45 786655.44,1435232.21 786643.75,1435231.53 786644.40,1435220.55 786645.96,1435220.63"/>
    <poly id="342683123" type="building" color="255,230,230" fill="1" layer="-1.00" shape="786659.21,1435230.69 786660.50,1435209.00 786674.75,1435209.84 786673.47,1435231.52 786659.21,1435230.69"/>
    <poly id="342683124" type="building" color="255,230,230" fill="1" layer="-1.00" shape="786677.56,1435231.17 786678.84,1435209.48 786693.09,1435210.32 786691.82,1435232.00 786677.56,1435231.17"/>
    <poly id="342683125" type="building" color="255,230,230" fill="1" layer="-1.00" shape="786693.82,1435233.82 786695.24,1435209.81 786713.82,1435210.90 786712.40,1435234.90 786693.82,1435233.82"/>
    <poly id="342683126" type="building" color="255,230,230" fill="1" layer="-1.00" shape="786715.41,1435232.15 786716.68,1435210.45 786730.94,1435211.28 786729.66,1435232.97 786715.41,1435232.15"/>
    <poly id="342683128" type="building" color="255,230,230" fill="1" layer="-1.00" shape="786734.32,1435233.49 786735.60,1435211.81 786749.85,1435212.64 786748.57,1435234.33 786734.32,1435233.49"/>
    <poly id="342683129" type="building" color="255,230,230" fill="1" layer="-1.00" shape="786752.66,1435233.97 786753.95,1435212.29 786768.20,1435213.12 786766.92,1435234.81 786752.66,1435233.97"/>
    <poly id="342683131" type="building" color="255,230,230" fill="1" layer="-1.00" shape="786637.95,1435254.25 786639.24,1435232.56 786653.49,1435233.40 786652.21,1435255.08 786637.95,1435254.25"/>
    <poly id="342683132" type="building" color="255,230,230" fill="1" layer="-1.00" shape="786675.35,1435255.67 786676.63,1435233.97 786690.89,1435234.80 786689.60,1435256.50 786675.35,1435255.67"/>
    <poly id="342683133" type="building" color="255,230,230" fill="1" layer="-1.00" shape="786657.01,1435255.19 786658.28,1435233.49 786672.54,1435234.33 786671.25,1435256.02 786657.01,1435255.19"/>
    <poly id="342683135" type="building" color="255,230,230" fill="1" layer="-1.00" shape="786713.20,1435256.63 786714.48,1435234.95 786728.72,1435235.78 786727.44,1435257.47 786713.20,1435256.63"/>
    <poly id="342683136" type="building" color="255,230,230" fill="1" layer="-1.00" shape="786732.11,1435257.99 786733.39,1435236.30 786747.64,1435237.13 786746.37,1435258.83 786732.11,1435257.99"/>
    <poly id="342683137" type="building" color="255,230,230" fill="1" layer="-1.00" shape="786750.45,1435258.47 786751.73,1435236.77 786765.99,1435237.61 786764.70,1435259.30 786750.45,1435258.47"/>
    <poly id="342683138" type="building" color="255,230,230" fill="1" layer="-1.00" shape="786768.79,1435259.81 786770.06,1435238.13 786784.31,1435238.96 786783.03,1435260.64 786768.79,1435259.81"/>
    <poly id="343604570" type="building" color="255,230,230" fill="1" layer="-1.00" shape="786565.77,1435449.78 786588.53,1435451.22 786589.33,1435438.60 786566.57,1435437.16 786565.77,1435449.78"/>
    <poly id="343604571" type="building" color="255,230,230" fill="1" layer="-1.00" shape="786590.08,1435447.08 786609.06,1435448.28 786609.82,1435436.42 786594.92,1435435.47 786595.17,1435431.55 786591.08,1435431.30 786590.08,1435447.08"/>
    <poly id="343604573" type="building" color="255,230,230" fill="1" layer="-1.00" shape="786569.36,1435431.15 786586.38,1435432.23 786587.30,1435417.77 786570.28,1435416.69 786569.36,1435431.15"/>
    <poly id="343604574" type="building" color="255,230,230" fill="1" layer="-1.00" shape="786591.55,1435418.86 786590.85,1435429.86 786607.90,1435430.93 786608.61,1435419.95 786591.55,1435418.86"/>
    <poly id="343604577" type="building" color="255,230,230" fill="1" layer="-1.00" shape="786592.22,1435405.27 786591.55,1435415.81 786606.70,1435416.76 786607.38,1435406.23 786592.22,1435405.27"/>
    <poly id="343604578" type="building" color="255,230,230" fill="1" layer="-1.00" shape="786568.72,1435396.26 786582.98,1435397.16 786583.74,1435385.25 786569.49,1435384.35 786568.72,1435396.26"/>
    <poly id="343604578#1" type="shop" color="237,199,255" fill="1" layer="-1.00" shape="786568.72,1435396.26 786582.98,1435397.16 786583.74,1435385.25 786569.49,1435384.35 786568.72,1435396.26"/>
    <poly id="343604579" type="building" color="255,230,230" fill="1" layer="-1.00" shape="786589.52,1435399.67 786610.96,1435401.02 786611.65,1435390.19 786590.21,1435388.84 786589.52,1435399.67"/>
    <poly id="343604580" type="building" color="255,230,230" fill="1" layer="-1.00" shape="786570.23,1435343.02 786569.54,1435357.71 786592.19,1435359.28 786593.12,1435344.58 786570.23,1435343.02"/>
    <poly id="343604581" type="building" color="255,230,230" fill="1" layer="-1.00" shape="786599.63,1435359.91 786598.82,1435372.58 786613.12,1435373.49 786613.94,1435360.81 786599.63,1435359.91"/>
    <poly id="343604582" type="building" color="255,230,230" fill="1" layer="-1.00" shape="786570.77,1435362.00 786597.46,1435363.68 786596.38,1435380.56 786590.50,1435380.19 786590.88,1435374.33 786581.72,1435373.76 786581.30,1435380.37 786569.64,1435379.63 786570.49,1435366.06 786570.77,1435362.00"/>
    <poly id="343604583" type="building" color="255,230,230" fill="1" layer="-1.00" shape="786597.64,1435376.48 786597.07,1435385.47 786609.37,1435386.26 786609.94,1435377.26 786597.64,1435376.48"/>
    <poly id="343605803" type="building" color="255,230,230" fill="1" layer="-1.00" shape="786598.68,1435343.03 786597.85,1435356.07 786611.35,1435356.92 786612.18,1435343.87 786598.68,1435343.03"/>
    <poly id="343605805" type="building" color="255,230,230" fill="1" layer="-1.00" shape="786602.21,1435306.39 786601.51,1435318.83 786616.25,1435319.65 786616.95,1435307.20 786602.21,1435306.39"/>
    <poly id="343605806" type="building" color="255,230,230" fill="1" layer="-1.00" shape="786602.67,1435268.02 786602.06,1435284.12 786620.10,1435284.80 786620.72,1435268.69 786602.67,1435268.02"/>
    <poly id="343605807" type="building" color="255,230,230" fill="1" layer="-1.00" shape="786601.56,1435287.96 786601.14,1435304.51 786618.87,1435304.95 786619.28,1435288.40 786601.56,1435287.96"/>
    <poly id="343605808" type="building" color="255,230,230" fill="1" layer="-1.00" shape="786605.51,1435250.12 786604.58,1435265.45 786620.96,1435266.44 786621.90,1435251.10 786605.51,1435250.12"/>
    <poly id="343605810" type="building" color="255,230,230" fill="1" layer="-1.00" shape="786574.36,1435302.89 786573.96,1435318.91 786594.37,1435319.41 786594.76,1435303.39 786574.36,1435302.89"/>
    <poly id="343605811" type="building" color="255,230,230" fill="1" layer="-1.00" shape="786576.13,1435286.97 786575.57,1435300.13 786595.41,1435300.97 786595.97,1435287.82 786576.13,1435286.97"/>
    <poly id="343605812" type="building" color="255,230,230" fill="1" layer="-1.00" shape="786578.89,1435250.78 786576.76,1435284.26 786598.18,1435285.61 786600.31,1435252.12 786578.89,1435250.78"/>
    <poly id="343605813" type="building" color="255,230,230" fill="1" layer="-1.00" shape="786577.06,1435247.73 786603.28,1435249.68 786604.44,1435234.19 786578.23,1435232.23 786577.06,1435247.73"/>
    <poly id="343605814" type="building" color="255,230,230" fill="1" layer="-1.00" shape="786606.85,1435234.02 786605.58,1435247.79 786622.90,1435249.38 786624.17,1435235.61 786606.85,1435234.02"/>
    <poly id="343605817" type="building" color="255,230,230" fill="1" layer="-1.00" shape="786592.53,1435214.18 786591.98,1435228.93 786602.09,1435229.30 786602.63,1435214.54 786592.53,1435214.18"/>
    <poly id="343605818" type="building" color="255,230,230" fill="1" layer="-1.00" shape="786605.90,1435214.56 786626.25,1435216.16 786625.50,1435225.69 786605.15,1435224.10 786605.90,1435214.56"/>
    <poly id="343605819" type="building" color="255,230,230" fill="1" layer="-1.00" shape="786606.01,1435196.97 786606.87,1435213.05 786625.86,1435212.04 786624.99,1435195.95 786606.01,1435196.97"/>
    <poly id="343605821" type="building" color="255,230,230" fill="1" layer="-1.00" shape="786606.64,1435174.68 786605.90,1435191.17 786625.44,1435192.04 786626.17,1435175.55 786606.64,1435174.68"/>
    <poly id="343605822" type="building" color="255,230,230" fill="1" layer="-1.00" shape="786580.36,1435176.10 786580.06,1435193.13 786603.47,1435193.54 786603.77,1435176.51 786580.36,1435176.10"/>
    <poly id="343632506" type="building" color="255,230,230" fill="1" layer="-1.00" shape="786644.31,1435190.00 786657.13,1435190.99 786658.31,1435175.83 786645.49,1435174.83 786644.31,1435190.00"/>
    <poly id="343632508" type="building" color="255,230,230" fill="1" layer="-1.00" shape="786658.85,1435191.31 786671.67,1435192.29 786672.86,1435177.13 786660.04,1435176.14 786658.85,1435191.31"/>
    <poly id="343632510" type="building" color="255,230,230" fill="1" layer="-1.00" shape="786673.12,1435192.32 786685.93,1435193.32 786687.12,1435178.15 786674.30,1435177.15 786673.12,1435192.32"/>
    <poly id="343632511" type="building" color="255,230,230" fill="1" layer="-1.00" shape="786696.13,1435191.69 786708.94,1435192.68 786710.13,1435177.51 786697.31,1435176.53 786696.13,1435191.69"/>
    <poly id="343632513" type="building" color="255,230,230" fill="1" layer="-1.00" shape="786712.42,1435193.01 786725.24,1435194.01 786726.42,1435178.85 786713.60,1435177.85 786712.42,1435193.01"/>
    <poly id="343632514" type="building" color="255,230,230" fill="1" layer="-1.00" shape="786728.42,1435194.92 786741.23,1435195.91 786742.42,1435180.75 786729.61,1435179.75 786728.42,1435194.92"/>
    <poly id="343632515" type="building" color="255,230,230" fill="1" layer="-1.00" shape="786742.09,1435196.22 786754.91,1435197.21 786756.10,1435182.04 786743.27,1435181.06 786742.09,1435196.22"/>
    <poly id="343632516" type="building" color="255,230,230" fill="1" layer="-1.00" shape="786756.06,1435197.23 786768.87,1435198.23 786770.06,1435183.06 786757.25,1435182.07 786756.06,1435197.23"/>
    <poly id="343632877" type="building" color="255,230,230" fill="1" layer="-1.00" shape="786627.80,1435430.17 786644.74,1435431.24 786645.32,1435422.04 786628.37,1435420.98 786627.80,1435430.17"/>
    <poly id="343632878" type="building" color="255,230,230" fill="1" layer="-1.00" shape="786625.31,1435444.91 786642.26,1435445.97 786642.84,1435436.77 786625.90,1435435.71 786625.31,1435444.91"/>
    <poly id="343632879" type="building" color="255,230,230" fill="1" layer="-1.00" shape="786627.64,1435417.15 786644.58,1435418.22 786645.16,1435409.01 786628.23,1435407.95 786627.64,1435417.15"/>
    <poly id="343632880" type="building" color="255,230,230" fill="1" layer="-1.00" shape="786628.05,1435406.45 786644.98,1435407.51 786645.57,1435398.31 786628.62,1435397.25 786628.05,1435406.45"/>
    <poly id="343632881" type="building" color="255,230,230" fill="1" layer="-1.00" shape="786648.97,1435410.43 786665.91,1435411.49 786666.49,1435402.29 786649.55,1435401.23 786648.97,1435410.43"/>
    <poly id="343632882" type="building" color="255,230,230" fill="1" layer="-1.00" shape="786647.11,1435421.70 786664.04,1435422.76 786664.63,1435413.55 786647.69,1435412.49 786647.11,1435421.70"/>
    <poly id="343634294" type="building" color="255,230,230" fill="1" layer="-1.00" shape="786724.83,1435432.29 786739.66,1435433.34 786740.47,1435421.91 786725.64,1435420.86 786724.83,1435432.29"/>
    <poly id="343634295" type="building" color="255,230,230" fill="1" layer="-1.00" shape="786726.13,1435418.71 786740.96,1435419.76 786741.78,1435408.33 786726.95,1435407.28 786726.13,1435418.71"/>
    <poly id="343634297" type="building" color="255,230,230" fill="1" layer="-1.00" shape="786676.64,1435444.95 786691.48,1435445.95 786692.16,1435435.92 786677.31,1435434.93 786676.64,1435444.95"/>
    <poly id="343634305" type="building" color="255,230,230" fill="1" layer="-1.00" shape="786699.40,1435412.35 786714.23,1435413.40 786715.05,1435401.97 786700.22,1435400.92 786699.40,1435412.35"/>
    <poly id="343634308" type="building" color="255,230,230" fill="1" layer="-1.00" shape="786677.66,1435432.99 786692.49,1435433.99 786693.26,1435422.55 786678.43,1435421.55 786677.66,1435432.99"/>
    <poly id="343634323" type="building" color="255,230,230" fill="1" layer="-1.00" shape="786697.05,1435441.22 786710.55,1435442.10 786711.05,1435434.40 786697.56,1435433.53 786697.05,1435441.22"/>
    <poly id="343634325" type="building" color="255,230,230" fill="1" layer="-1.00" shape="786697.12,1435429.93 786710.61,1435430.80 786711.12,1435423.11 786697.62,1435422.23 786697.12,1435429.93"/>
    <poly id="343634326" type="building" color="255,230,230" fill="1" layer="-1.00" shape="786698.09,1435420.68 786711.58,1435421.56 786712.08,1435413.86 786698.59,1435412.98 786698.09,1435420.68"/>
    <poly id="343634327" type="building" color="255,230,230" fill="1" layer="-1.00" shape="786676.58,1435418.05 786694.59,1435419.25 786695.09,1435411.80 786677.09,1435410.58 786676.58,1435418.05"/>
    <poly id="343634329" type="building" color="255,230,230" fill="1" layer="-1.00" shape="786743.85,1435422.28 786759.24,1435423.11 786760.20,1435405.73 786744.80,1435404.90 786743.85,1435422.28"/>
    <poly id="343634330" type="building" color="255,230,230" fill="1" layer="-1.00" shape="786741.58,1435445.38 786754.78,1435446.03 786755.79,1435425.79 786742.58,1435425.14 786741.58,1435445.38"/>
    <poly id="343634331" type="building" color="255,230,230" fill="1" layer="-1.00" shape="786722.65,1435456.10 786738.24,1435456.74 786739.15,1435434.54 786723.56,1435433.91 786722.65,1435456.10"/>
    <poly id="343680930" type="building" color="255,230,230" fill="1" layer="-1.00" shape="786777.29,1435374.97 786776.73,1435389.12 786788.42,1435389.58 786788.98,1435375.43 786777.29,1435374.97"/>
    <poly id="343680934" type="building" color="255,230,230" fill="1" layer="-1.00" shape="786779.01,1435351.66 786778.26,1435370.44 786808.84,1435371.64 786809.59,1435352.87 786779.01,1435351.66"/>
    <poly id="343683120" type="building" color="255,230,230" fill="1" layer="-1.00" shape="786790.98,1435453.56 786804.22,1435453.70 786804.32,1435443.95 786791.08,1435443.81 786790.98,1435453.56"/>
    <poly id="343683121" type="building" color="255,230,230" fill="1" layer="-1.00" shape="786794.46,1435415.99 786807.71,1435416.13 786807.80,1435406.38 786794.56,1435406.24 786794.46,1435415.99"/>
    <poly id="343683122" type="building" color="255,230,230" fill="1" layer="-1.00" shape="786776.03,1435414.27 786789.28,1435414.41 786789.38,1435404.66 786776.14,1435404.52 786776.03,1435414.27"/>
    <poly id="343683123" type="building" color="255,230,230" fill="1" layer="-1.00" shape="786772.81,1435429.13 786786.05,1435429.27 786786.15,1435419.52 786772.91,1435419.39 786772.81,1435429.13"/>
    <poly id="343683124" type="building" color="255,230,230" fill="1" layer="-1.00" shape="786793.56,1435428.96 786806.80,1435429.10 786806.90,1435419.35 786793.66,1435419.22 786793.56,1435428.96"/>
    <poly id="343683125" type="building" color="255,230,230" fill="1" layer="-1.00" shape="786791.14,1435440.01 786804.37,1435440.15 786804.48,1435430.40 786791.24,1435430.26 786791.14,1435440.01"/>
    <poly id="343683128" type="building" color="255,230,230" fill="1" layer="-1.00" shape="786771.80,1435452.03 786785.04,1435452.16 786785.14,1435442.42 786771.90,1435442.28 786771.80,1435452.03"/>
    <poly id="343844647" type="commercial" color="209,209,204" fill="1" layer="-3.00" shape="786491.48,1435587.98 786507.30,1435361.86 786481.89,1435360.34 786483.54,1435333.02 786527.00,1435337.38 786533.50,1435342.16 786520.92,1435590.00 786491.48,1435587.98"/>
    <poly id="346453462" type="building" color="255,230,230" fill="1" layer="-1.00" shape="786430.86,1435423.30 786443.44,1435424.03 786443.97,1435414.81 786431.39,1435414.09 786430.86,1435423.30"/>
    <poly id="346453463" type="building" color="255,230,230" fill="1" layer="-1.00" shape="786400.76,1435410.00 786414.81,1435411.03 786415.57,1435400.78 786401.53,1435399.75 786400.76,1435410.00"/>
    <poly id="346453470" type="building" color="255,230,230" fill="1" layer="-1.00" shape="786432.27,1435412.01 786448.45,1435412.94 786449.10,1435401.72 786432.93,1435400.79 786432.27,1435412.01"/>
    <poly id="346453472" type="building" color="255,230,230" fill="1" layer="-1.00" shape="786483.78,1435389.18 786498.28,1435390.20 786499.00,1435380.00 786484.52,1435378.97 786483.78,1435389.18"/>
    <poly id="346453476" type="building" color="255,230,230" fill="1" layer="-1.00" shape="786380.42,1435433.66 786396.41,1435434.83 786397.21,1435424.17 786381.22,1435422.99 786380.42,1435433.66"/>
    <poly id="346453486" type="building" color="255,230,230" fill="1" layer="-1.00" shape="786451.90,1435400.58 786465.41,1435401.35 786466.15,1435388.72 786452.64,1435387.94 786451.90,1435400.58"/>
    <poly id="346453507" type="building" color="255,230,230" fill="1" layer="-1.00" shape="786400.26,1435421.62 786410.84,1435422.40 786411.43,1435414.33 786400.86,1435413.54 786400.26,1435421.62"/>
    <poly id="346453513" type="building" color="255,230,230" fill="1" layer="-1.00" shape="786428.72,1435445.68 786443.50,1435446.53 786443.96,1435438.43 786429.18,1435437.58 786428.72,1435445.68"/>
    <poly id="346453520" type="building" color="255,230,230" fill="1" layer="-1.00" shape="786399.49,1435446.35 786411.93,1435447.27 786412.56,1435438.83 786400.12,1435437.91 786399.49,1435446.35"/>
    <poly id="346453536" type="building" color="255,230,230" fill="1" layer="-1.00" shape="786487.18,1435374.69 786500.22,1435375.62 786501.06,1435363.98 786488.02,1435363.06 786487.18,1435374.69"/>
    <poly id="346453546" type="building" color="255,230,230" fill="1" layer="-1.00" shape="786395.77,1435421.36 786396.39,1435413.07 786383.07,1435412.09 786382.45,1435420.38 786395.77,1435421.36"/>
    <poly id="346453555" type="building" color="255,230,230" fill="1" layer="-1.00" shape="786398.79,1435434.98 786412.14,1435435.96 786413.05,1435423.71 786399.70,1435422.73 786398.79,1435434.98"/>
    <poly id="346453567" type="building" color="255,230,230" fill="1" layer="-1.00" shape="786396.99,1435397.45 786397.89,1435385.52 786384.47,1435384.54 786383.59,1435396.46 786396.99,1435397.45"/>
    <poly id="346453583" type="building" color="255,230,230" fill="1" layer="-1.00" shape="786383.33,1435409.20 786398.32,1435410.31 786399.08,1435400.08 786384.10,1435398.98 786383.33,1435409.20"/>
    <poly id="346453593" type="building" color="255,230,230" fill="1" layer="-1.00" shape="786446.26,1435448.39 786461.73,1435449.28 786462.22,1435440.94 786446.75,1435440.05 786446.26,1435448.39"/>
    <poly id="346453594" type="building" color="255,230,230" fill="1" layer="-1.00" shape="786483.19,1435404.59 786497.50,1435405.31 786498.09,1435393.56 786483.78,1435392.85 786483.19,1435404.59"/>
    <poly id="346517400" type="building" color="255,230,230" fill="1" layer="-1.00" shape="786485.03,1435346.18 786505.64,1435347.64 786506.56,1435334.81 786485.96,1435333.36 786485.03,1435346.18"/>
    <poly id="346517492" type="building" color="255,230,230" fill="1" layer="-1.00" shape="786486.52,1435348.01 786485.67,1435359.90 786502.56,1435361.09 786503.42,1435349.20 786486.52,1435348.01"/>
    <poly id="346517560" type="building" color="255,230,230" fill="1" layer="-1.00" shape="786511.16,1435350.59 786532.05,1435352.07 786532.86,1435340.58 786511.99,1435339.12 786511.16,1435350.59"/>
    <poly id="346517573" type="building" color="255,230,230" fill="1" layer="-1.00" shape="786519.55,1435441.35 786520.48,1435429.13 786504.04,1435427.89 786503.11,1435440.10 786519.55,1435441.35"/>
    <poly id="346517751" type="building" color="255,230,230" fill="1" layer="-1.00" shape="786533.28,1435411.15 786534.48,1435394.89 786510.79,1435393.16 786509.59,1435409.42 786533.28,1435411.15"/>
    <poly id="346517817" type="building" color="255,230,230" fill="1" layer="-1.00" shape="786527.84,1435369.39 786528.73,1435356.96 786515.88,1435356.05 786516.18,1435351.95 786510.12,1435351.52 786508.94,1435368.06 786527.84,1435369.39"/>
    <poly id="346517820" type="building" color="255,230,230" fill="1" layer="-1.00" shape="786524.36,1435386.81 786525.04,1435377.37 786516.95,1435376.80 786517.16,1435373.81 786510.72,1435373.36 786509.83,1435385.78 786524.36,1435386.81"/>
    <poly id="346526045" type="building" color="255,230,230" fill="1" layer="-1.00" shape="786678.98,1435401.70 786678.55,1435408.13 786694.44,1435409.19 786694.88,1435402.76 786678.98,1435401.70"/>
    <poly id="346526046" type="building" color="255,230,230" fill="1" layer="-1.00" shape="786516.03,1435224.86 786514.96,1435239.69 786536.03,1435241.18 786537.10,1435226.35 786516.03,1435224.86"/>
    <poly id="346526047" type="building" color="255,230,230" fill="1" layer="-1.00" shape="786515.86,1435282.80 786514.43,1435302.95 786486.79,1435300.99 786485.99,1435312.15 786533.60,1435315.52 786535.84,1435284.21 786515.86,1435282.80"/>
    <poly id="346526051" type="building" color="255,230,230" fill="1" layer="-1.00" shape="786520.10,1435207.83 786519.12,1435221.53 786538.69,1435222.92 786539.67,1435209.21 786520.10,1435207.83"/>
    <poly id="346526057" type="building" color="255,230,230" fill="1" layer="-1.00" shape="786514.41,1435264.87 786513.57,1435276.53 786532.17,1435277.85 786533.00,1435266.19 786514.41,1435264.87"/>
    <poly id="346526061" type="building" color="255,230,230" fill="1" layer="-1.00" shape="786515.24,1435245.51 786514.36,1435257.80 786533.85,1435259.18 786534.73,1435246.88 786515.24,1435245.51"/>
    <poly id="346526064" type="building" color="255,230,230" fill="1" layer="-1.00" shape="786517.58,1435188.13 786516.46,1435203.73 786530.83,1435204.75 786531.94,1435189.15 786517.58,1435188.13"/>
    <poly id="346526066" type="building" color="255,230,230" fill="1" layer="-1.00" shape="786519.00,1435170.11 786518.09,1435182.79 786537.04,1435184.12 786537.96,1435171.45 786519.00,1435170.11"/>