<?xml version="1.0" encoding="UTF-8"?>

<!-- generated on Mon Jun 25 11:33:09 2018 by SUMO netconvert Version 0.32.0
<?xml version="1.0" encoding="UTF-8"?>

<configuration xmlns:xsi="http://www.w3.org/2001/XMLSchema-instance" xsi:noNamespaceSchemaLocation="http://sumo.dlr.de/xsd/netconvertConfiguration.xsd">

    <input>
        <node-files value="/home/utkarsh/Study/Quantela/hoodi_test/joining_nodes.xml"/>
        <osm-files value="/home/utkarsh/Study/Quantela/hoodi_test/map.osm"/>
    </input>

    <output>
        <output-file value="/home/utkarsh/Study/Quantela/hoodi_test/original_sumo.net.xml"/>
    </output>

    <projection>
        <proj.utm value="true"/>
    </projection>

    <tls_building>
        <tls.yellow.time value="0"/>
        <tls.left-green.time value="0"/>
    </tls_building>

    <processing>
        <lefthand value="true"/>
    </processing>

</configuration>
-->

<net version="0.27" lefthand="true" xmlns:xsi="http://www.w3.org/2001/XMLSchema-instance" xsi:noNamespaceSchemaLocation="http://sumo.dlr.de/xsd/net_file.xsd">

    <location netOffset="-796765.41,-1434020.40" convBoundary="0.00,-0.00,2391.16,4129.88" origBoundary="77.735568,12.957348,77.757670,12.994528" projParameter="+proj=utm +zone=43 +ellps=WGS84 +datum=WGS84 +units=m +no_defs"/>

    <type id="highway.bridleway" priority="1" numLanes="1" speed="2.78" allow="pedestrian" oneway="1" width="2.00"/>
    <type id="highway.bus_guideway" priority="1" numLanes="1" speed="27.78" allow="bus" oneway="1"/>
    <type id="highway.cycleway" priority="1" numLanes="1" speed="8.33" allow="bicycle" oneway="0" width="1.00"/>
    <type id="highway.footway" priority="1" numLanes="1" speed="2.78" allow="pedestrian" oneway="1" width="2.00"/>
    <type id="highway.ford" priority="1" numLanes="1" speed="2.78" allow="army" oneway="0"/>
    <type id="highway.living_street" priority="3" numLanes="1" speed="2.78" disallow="tram rail_urban rail rail_electric ship" oneway="0"/>
    <type id="highway.motorway" priority="13" numLanes="2" speed="44.44" allow="private emergency authority army vip passenger hov taxi bus coach delivery truck trailer motorcycle evehicle custom1 custom2" oneway="1"/>
    <type id="highway.motorway_link" priority="12" numLanes="1" speed="22.22" allow="private emergency authority army vip passenger hov taxi bus coach delivery truck trailer motorcycle evehicle custom1 custom2" oneway="1"/>
    <type id="highway.path" priority="1" numLanes="1" speed="2.78" allow="bicycle pedestrian" oneway="1" width="2.00"/>
    <type id="highway.pedestrian" priority="1" numLanes="1" speed="2.78" allow="pedestrian" oneway="1" width="2.00"/>
    <type id="highway.primary" priority="9" numLanes="2" speed="27.78" disallow="tram rail_urban rail rail_electric ship" oneway="0"/>
    <type id="highway.primary_link" priority="8" numLanes="1" speed="22.22" disallow="tram rail_urban rail rail_electric ship" oneway="0"/>
    <type id="highway.raceway" priority="14" numLanes="2" speed="83.33" allow="vip" oneway="0"/>
    <type id="highway.residential" priority="4" numLanes="1" speed="13.89" disallow="tram rail_urban rail rail_electric ship" oneway="0"/>
    <type id="highway.secondary" priority="7" numLanes="2" speed="27.78" disallow="tram rail_urban rail rail_electric ship" oneway="0"/>
    <type id="highway.secondary_link" priority="6" numLanes="1" speed="22.22" disallow="tram rail_urban rail rail_electric ship" oneway="0"/>
    <type id="highway.service" priority="2" numLanes="1" speed="5.56" allow="delivery bicycle pedestrian" oneway="0"/>
    <type id="highway.services" priority="1" numLanes="1" speed="8.33" disallow="tram rail_urban rail rail_electric ship" oneway="0"/>
    <type id="highway.stairs" priority="1" numLanes="1" speed="1.39" allow="pedestrian" oneway="1" width="2.00"/>
    <type id="highway.step" priority="1" numLanes="1" speed="1.39" allow="pedestrian" oneway="1" width="2.00"/>
    <type id="highway.steps" priority="1" numLanes="1" speed="1.39" allow="pedestrian" oneway="1" width="2.00"/>
    <type id="highway.tertiary" priority="6" numLanes="1" speed="22.22" disallow="tram rail_urban rail rail_electric ship" oneway="0"/>
    <type id="highway.tertiary_link" priority="5" numLanes="1" speed="22.22" disallow="tram rail_urban rail rail_electric ship" oneway="0"/>
    <type id="highway.track" priority="1" numLanes="1" speed="5.56" disallow="tram rail_urban rail rail_electric ship" oneway="0"/>
    <type id="highway.trunk" priority="11" numLanes="2" speed="27.78" disallow="tram rail_urban rail rail_electric bicycle pedestrian ship" oneway="0"/>
    <type id="highway.trunk_link" priority="10" numLanes="1" speed="22.22" disallow="tram rail_urban rail rail_electric bicycle pedestrian ship" oneway="0"/>
    <type id="highway.unclassified" priority="5" numLanes="1" speed="13.89" disallow="tram rail_urban rail rail_electric ship" oneway="0"/>
    <type id="highway.unsurfaced" priority="1" numLanes="1" speed="8.33" disallow="tram rail_urban rail rail_electric ship" oneway="0"/>
    <type id="railway.light_rail" priority="15" numLanes="1" speed="27.78" allow="rail_urban" oneway="1"/>
    <type id="railway.preserved" priority="15" numLanes="1" speed="27.78" allow="rail" oneway="1"/>
    <type id="railway.rail" priority="15" numLanes="1" speed="83.33" allow="rail rail_electric" oneway="1"/>
    <type id="railway.subway" priority="15" numLanes="1" speed="27.78" allow="rail_urban" oneway="1"/>
    <type id="railway.tram" priority="15" numLanes="1" speed="13.89" allow="tram" oneway="1"/>

    <edge id=":2876319778_0" function="internal">
        <lane id=":2876319778_0_0" index="0" allow="delivery bicycle pedestrian" speed="16.67" length="8.08" shape="1789.01,2940.24 1787.26,2940.47 1785.42,2940.19 1783.50,2939.41 1781.49,2938.11"/>
    </edge>
    <edge id=":2876319778_1" function="internal">
        <lane id=":2876319778_1_0" index="0" disallow="tram rail_urban rail rail_electric ship" speed="27.78" length="8.18" shape="1789.01,2940.24 1781.14,2942.55"/>
        <lane id=":2876319778_1_1" index="1" disallow="tram rail_urban rail rail_electric ship" speed="27.78" length="8.18" shape="1789.91,2943.41 1782.07,2945.72"/>
    </edge>
    <edge id=":5559661186_0" function="internal">
        <lane id=":5559661186_0_0" index="0" disallow="tram rail_urban rail rail_electric ship" speed="27.78" length="0.10" shape="1792.12,2951.11 1792.12,2951.11"/>
        <lane id=":5559661186_0_1" index="1" disallow="tram rail_urban rail rail_electric ship" speed="27.78" length="0.10" shape="1791.10,2947.97 1791.10,2947.97"/>
    </edge>
    <edge id=":cluster_1104241030_1104243944_1368829017_251105190_0" function="internal">
        <lane id=":cluster_1104241030_1104243944_1368829017_251105190_0_0" index="0" disallow="tram rail_urban rail rail_electric ship" speed="27.78" length="10.26" shape="1845.22,2928.49 1842.25,2927.87 1839.94,2926.74 1838.29,2925.12 1837.29,2923.00"/>
    </edge>
    <edge id=":cluster_1104241030_1104243944_1368829017_251105190_1" function="internal">
        <lane id=":cluster_1104241030_1104243944_1368829017_251105190_1_0" index="0" disallow="tram rail_urban rail rail_electric ship" speed="27.78" length="21.74" shape="1845.22,2928.49 1838.96,2927.85 1834.18,2927.78 1829.46,2928.50 1823.44,2930.20"/>
        <lane id=":cluster_1104241030_1104243944_1368829017_251105190_1_1" index="1" disallow="tram rail_urban rail rail_electric ship" speed="27.78" length="21.74" shape="1845.51,2931.85 1839.37,2931.17 1834.82,2931.03 1830.36,2931.67 1824.44,2933.35"/>
    </edge>
    <edge id=":cluster_1104241030_1104243944_1368829017_251105190_3" function="internal">
        <lane id=":cluster_1104241030_1104243944_1368829017_251105190_3_0" index="0" disallow="tram rail_urban rail rail_electric ship" speed="27.78" length="10.43" shape="1845.51,2931.85 1839.49,2931.93 1835.63,2933.80 1835.58,2933.92"/>
    </edge>
    <edge id=":cluster_1104241030_1104243944_1368829017_251105190_4" function="internal">
        <lane id=":cluster_1104241030_1104243944_1368829017_251105190_4_0" index="0" disallow="tram rail_urban rail rail_electric ship" speed="27.78" length="0.92" shape="1845.51,2931.85 1844.79,2932.42"/>
    </edge>
    <edge id=":cluster_1104241030_1104243944_1368829017_251105190_20" function="internal">
        <lane id=":cluster_1104241030_1104243944_1368829017_251105190_20_0" index="0" speed="27.78" length="9.41" shape="1835.58,2933.92 1833.93,2937.48 1834.38,2942.94"/>
    </edge>
    <edge id=":cluster_1104241030_1104243944_1368829017_251105190_21" function="internal">
        <lane id=":cluster_1104241030_1104243944_1368829017_251105190_21_0" index="0" speed="27.78" length="2.06" shape="1844.79,2932.42 1844.58,2932.95 1844.88,2933.44 1845.68,2933.88"/>
    </edge>
    <edge id=":cluster_1104241030_1104243944_1368829017_251105190_5" function="internal">
        <lane id=":cluster_1104241030_1104243944_1368829017_251105190_5_0" index="0" disallow="tram rail_urban rail rail_electric ship" speed="27.78" length="5.30" shape="1843.70,2940.61 1843.23,2939.22 1843.46,2938.18 1844.37,2937.50 1845.97,2937.17"/>
    </edge>
    <edge id=":cluster_1104241030_1104243944_1368829017_251105190_6" function="internal">
        <lane id=":cluster_1104241030_1104243944_1368829017_251105190_6_0" index="0" disallow="tram rail_urban rail rail_electric ship" speed="27.78" length="18.74" shape="1843.70,2940.61 1841.24,2935.61 1839.84,2932.06 1838.76,2928.39 1837.29,2923.00"/>
        <lane id=":cluster_1104241030_1104243944_1368829017_251105190_6_1" index="1" disallow="tram rail_urban rail rail_electric ship" speed="27.78" length="18.74" shape="1840.41,2941.43 1837.98,2936.46 1836.61,2932.93 1835.56,2929.26 1834.12,2923.90"/>
    </edge>
    <edge id=":cluster_1104241030_1104243944_1368829017_251105190_8" function="internal">
        <lane id=":cluster_1104241030_1104243944_1368829017_251105190_8_0" index="0" disallow="tram rail_urban rail rail_electric ship" speed="27.78" length="11.27" shape="1840.41,2941.43 1837.23,2936.69 1833.51,2933.76 1832.72,2933.55"/>
    </edge>
    <edge id=":cluster_1104241030_1104243944_1368829017_251105190_9" function="internal">
        <lane id=":cluster_1104241030_1104243944_1368829017_251105190_9_0" index="0" disallow="tram rail_urban rail rail_electric ship" speed="27.78" length="6.40" shape="1840.41,2941.43 1838.34,2939.55 1836.64,2939.18 1835.33,2940.31 1835.28,2940.42"/>
    </edge>
    <edge id=":cluster_1104241030_1104243944_1368829017_251105190_22" function="internal">
        <lane id=":cluster_1104241030_1104243944_1368829017_251105190_22_0" index="0" speed="27.78" length="8.44" shape="1832.72,2933.55 1829.24,2932.64 1824.44,2933.35"/>
    </edge>
    <edge id=":cluster_1104241030_1104243944_1368829017_251105190_23" function="internal">
        <lane id=":cluster_1104241030_1104243944_1368829017_251105190_23_0" index="0" speed="27.78" length="2.68" shape="1835.28,2940.42 1834.38,2942.94"/>
    </edge>
    <edge id=":cluster_1104241030_1104243944_1368829017_251105190_10" function="internal">
        <lane id=":cluster_1104241030_1104243944_1368829017_251105190_10_0" index="0" disallow="tram rail_urban rail rail_electric ship" speed="27.78" length="5.69" shape="1826.91,2941.03 1828.48,2940.98 1829.72,2941.41 1830.62,2942.34 1831.18,2943.75"/>
    </edge>
    <edge id=":cluster_1104241030_1104243944_1368829017_251105190_11" function="internal">
        <lane id=":cluster_1104241030_1104243944_1368829017_251105190_11_0" index="0" disallow="tram rail_urban rail rail_electric ship" speed="27.78" length="19.85" shape="1826.91,2941.03 1832.56,2939.84 1836.39,2938.76 1840.25,2937.85 1845.97,2937.17"/>
        <lane id=":cluster_1104241030_1104243944_1368829017_251105190_11_1" index="1" disallow="tram rail_urban rail rail_electric ship" speed="27.78" length="19.85" shape="1825.89,2937.86 1831.74,2936.63 1835.74,2935.52 1839.77,2934.59 1845.68,2933.88"/>
    </edge>
    <edge id=":cluster_1104241030_1104243944_1368829017_251105190_13" function="internal">
        <lane id=":cluster_1104241030_1104243944_1368829017_251105190_13_0" index="0" disallow="tram rail_urban rail rail_electric ship" speed="27.78" length="9.88" shape="1825.89,2937.86 1830.75,2936.24 1833.74,2933.38 1833.90,2932.78"/>
    </edge>
    <edge id=":cluster_1104241030_1104243944_1368829017_251105190_14" function="internal">
        <lane id=":cluster_1104241030_1104243944_1368829017_251105190_14_0" index="0" disallow="tram rail_urban rail rail_electric ship" speed="27.78" length="4.24" shape="1825.89,2937.86 1827.22,2936.19 1827.42,2934.88 1826.88,2934.32"/>
    </edge>
    <edge id=":cluster_1104241030_1104243944_1368829017_251105190_24" function="internal">
        <lane id=":cluster_1104241030_1104243944_1368829017_251105190_24_0" index="0" speed="27.78" length="9.06" shape="1833.90,2932.78 1834.86,2929.26 1834.12,2923.90"/>
    </edge>
    <edge id=":cluster_1104241030_1104243944_1368829017_251105190_25" function="internal">
        <lane id=":cluster_1104241030_1104243944_1368829017_251105190_25_0" index="0" speed="27.78" length="2.68" shape="1826.88,2934.32 1826.50,2933.93 1824.44,2933.35"/>
    </edge>
    <edge id=":cluster_1104241030_1104243944_1368829017_251105190_15" function="internal">
        <lane id=":cluster_1104241030_1104243944_1368829017_251105190_15_0" index="0" disallow="tram rail_urban rail rail_electric ship" speed="27.78" length="5.00" shape="1825.77,2926.29 1825.75,2927.68 1825.36,2928.80 1824.59,2929.64 1823.44,2930.20"/>
    </edge>
    <edge id=":cluster_1104241030_1104243944_1368829017_251105190_16" function="internal">
        <lane id=":cluster_1104241030_1104243944_1368829017_251105190_16_0" index="0" disallow="tram rail_urban rail rail_electric ship" speed="27.78" length="18.40" shape="1825.77,2926.29 1826.74,2931.60 1828.05,2935.09 1829.58,2938.55 1831.18,2943.75"/>
        <lane id=":cluster_1104241030_1104243944_1368829017_251105190_16_1" index="1" disallow="tram rail_urban rail rail_electric ship" speed="27.78" length="18.40" shape="1828.99,2925.37 1829.96,2930.71 1831.26,2934.23 1832.78,2937.71 1834.38,2942.94"/>
    </edge>
    <edge id=":cluster_1104241030_1104243944_1368829017_251105190_18" function="internal">
        <lane id=":cluster_1104241030_1104243944_1368829017_251105190_18_0" index="0" disallow="tram rail_urban rail rail_electric ship" speed="27.78" length="9.94" shape="1828.99,2925.37 1830.44,2929.54 1833.70,2932.35 1834.88,2932.68"/>
    </edge>
    <edge id=":cluster_1104241030_1104243944_1368829017_251105190_19" function="internal">
        <lane id=":cluster_1104241030_1104243944_1368829017_251105190_19_0" index="0" disallow="tram rail_urban rail rail_electric ship" speed="27.78" length="5.05" shape="1828.99,2925.37 1830.82,2926.93 1832.29,2927.20 1833.14,2926.42"/>
    </edge>
    <edge id=":cluster_1104241030_1104243944_1368829017_251105190_26" function="internal">
        <lane id=":cluster_1104241030_1104243944_1368829017_251105190_26_0" index="0" speed="27.78" length="10.96" shape="1834.88,2932.68 1838.79,2933.80 1845.68,2933.88"/>
    </edge>
    <edge id=":cluster_1104241030_1104243944_1368829017_251105190_27" function="internal">
        <lane id=":cluster_1104241030_1104243944_1368829017_251105190_27_0" index="0" speed="27.78" length="2.74" shape="1833.14,2926.42 1833.39,2926.19 1834.12,2923.90"/>
    </edge>

    <edge id="122516806" from="1368829019" to="cluster_1104241030_1104243944_1368829017_251105190" priority="7" type="highway.secondary" spreadType="center" shape="1971.70,2915.35 1868.61,2928.59 1851.37,2931.02 1848.97,2930.59 1837.33,2929.25">
        <lane id="122516806_0" index="0" disallow="tram rail_urban rail rail_electric ship" speed="27.78" length="127.42" shape="1971.49,2913.72 1868.39,2926.95 1851.40,2929.35 1849.21,2928.96 1845.22,2928.49"/>
        <lane id="122516806_1" index="1" disallow="tram rail_urban rail rail_electric ship" speed="27.78" length="127.42" shape="1971.91,2916.99 1868.83,2930.22 1851.34,2932.70 1848.72,2932.22 1845.51,2931.85"/>
    </edge>
    <edge id="133631823" from="cluster_1104241030_1104243944_1368829017_251105190" to="1104241038" priority="9" type="highway.primary" spreadType="center" shape="1831.63,2938.55 1834.37,2949.93 1842.92,2972.00 1915.03,3164.25 1925.80,3192.01 1969.97,3305.74 2007.19,3397.17 2028.99,3452.95 2082.20,3589.04 2097.06,3617.48 2105.67,3633.96 2173.57,3731.00 2179.59,3738.95 2204.26,3771.53 2210.75,3779.59 2259.45,3852.23 2330.71,3947.28 2348.47,3967.76 2354.87,3980.41 2361.09,4013.76 2362.39,4031.36 2363.34,4038.38 2380.45,4103.46 2383.52,4110.71 2391.16,4129.88">
        <lane id="133631823_0" index="0" disallow="tram rail_urban rail rail_electric ship" speed="27.78" length="1324.58" shape="1831.18,2943.75 1832.79,2950.42 1841.37,2972.58 1913.49,3164.83 1924.26,3192.61 1968.43,3306.34 2005.65,3397.78 2027.46,3453.55 2080.69,3589.72 2095.60,3618.24 2104.26,3634.81 2172.23,3731.97 2178.28,3739.94 2202.96,3772.55 2209.42,3780.57 2258.10,3853.19 2329.42,3948.32 2347.09,3968.69 2353.30,3980.95 2359.45,4013.97 2360.75,4031.53 2361.72,4038.71 2378.88,4103.99 2381.99,4111.34 2389.62,4130.49"/>
        <lane id="133631823_1" index="1" disallow="tram rail_urban rail rail_electric ship" speed="27.78" length="1324.58" shape="1834.38,2942.94 1835.95,2949.43 1844.46,2971.41 1916.57,3163.66 1927.34,3191.41 1971.50,3305.13 2008.72,3396.56 2030.53,3452.35 2083.70,3588.35 2098.52,3616.71 2107.09,3633.10 2174.90,3730.03 2180.91,3737.95 2205.56,3770.52 2212.08,3778.61 2260.80,3851.28 2331.99,3946.24 2349.86,3966.84 2356.45,3979.88 2362.73,4013.55 2364.03,4031.18 2364.97,4038.06 2382.01,4102.93 2385.04,4110.09 2392.69,4129.27"/>
    </edge>
    <edge id="139266402" from="955705471" to="5559661186" priority="9" type="highway.primary" spreadType="center" shape="0.00,3347.30 27.41,3346.04 146.28,3345.50 168.58,3344.97 201.61,3345.14 252.90,3346.52 490.16,3348.56 503.74,3345.72 726.35,3288.93 738.97,3285.71 952.68,3234.29 976.78,3228.06 1010.36,3219.96 1078.66,3200.26 1082.17,3199.05 1144.54,3177.56 1248.49,3138.93 1320.20,3111.35 1330.60,3108.88 1409.75,3079.25 1505.20,3046.34 1682.49,2985.19 1791.61,2949.54">
        <lane id="139266402_0" index="0" disallow="tram rail_urban rail rail_electric ship" speed="27.78" length="1853.10" shape="0.08,3348.95 27.45,3347.69 146.30,3347.15 168.60,3346.62 201.58,3346.79 252.87,3348.16 490.33,3350.21 504.12,3347.33 726.76,3290.53 739.37,3287.32 953.08,3235.89 977.18,3229.66 1010.78,3221.56 1079.16,3201.83 1082.71,3200.61 1145.09,3179.12 1249.07,3140.47 1320.69,3112.93 1331.08,3110.46 1410.31,3080.81 1505.74,3047.90 1683.01,2986.75 1792.12,2951.11"/>
        <lane id="139266402_1" index="1" disallow="tram rail_urban rail rail_electric ship" speed="27.78" length="1853.10" shape="-0.08,3345.65 27.36,3344.39 146.25,3343.85 168.57,3343.32 201.63,3343.49 252.93,3344.87 490.00,3346.91 503.37,3344.12 725.94,3287.33 738.57,3284.11 952.29,3232.68 976.38,3226.46 1009.94,3218.37 1078.16,3198.69 1081.63,3197.49 1143.98,3176.01 1247.90,3137.38 1319.72,3109.77 1330.12,3107.30 1409.20,3077.70 1504.66,3044.78 1681.96,2983.62 1791.10,2947.97"/>
    </edge>
    <edge id="143215059" from="1104241032" to="cluster_1104241030_1104243944_1368829017_251105190" priority="9" type="highway.primary" spreadType="center" shape="2386.11,4104.79 2374.35,4045.11 2371.95,4030.97 2368.20,3986.62 2358.81,3966.66 2348.34,3949.79 2339.50,3939.55 2265.51,3839.74 2215.57,3775.45 2178.51,3726.97 2110.92,3630.31 2088.03,3585.91 2050.70,3487.78 2037.89,3449.75 2022.55,3401.34 1988.20,3305.71 1958.63,3229.94 1933.43,3165.31 1895.52,3069.78 1855.69,2971.63 1844.41,2945.59 1839.47,2936.01">
        <lane id="143215059_0" index="0" disallow="tram rail_urban rail rail_electric ship" speed="27.78" length="1300.14" shape="2387.73,4104.48 2375.97,4044.82 2373.59,4030.76 2369.82,3986.19 2360.26,3965.87 2349.68,3948.81 2340.79,3938.51 2266.83,3838.75 2216.88,3774.45 2179.84,3725.99 2112.34,3629.46 2089.54,3585.24 2052.25,3487.22 2039.46,3449.23 2024.11,3400.81 1989.74,3305.13 1960.16,3229.34 1934.97,3164.70 1897.05,3069.17 1857.21,2970.99 1845.90,2944.88 1843.70,2940.61"/>
        <lane id="143215059_1" index="1" disallow="tram rail_urban rail rail_electric ship" speed="27.78" length="1300.14" shape="2384.49,4105.11 2372.72,4045.41 2370.31,4031.18 2366.59,3987.06 2357.36,3967.45 2347.01,3950.77 2338.21,3940.58 2264.20,3840.74 2214.26,3776.46 2177.18,3727.94 2109.51,3631.17 2086.52,3586.59 2049.15,3488.34 2036.32,3450.26 2020.98,3401.87 1986.65,3306.29 1957.09,3230.54 1931.90,3165.91 1893.99,3070.40 1854.17,2972.26 1842.92,2946.29 1840.41,2941.43"/>
    </edge>
    <edge id="143215060" from="cluster_1104241030_1104243944_1368829017_251105190" to="1368814489" priority="9" type="highway.primary" spreadType="center" shape="1837.33,2929.25 1834.15,2917.90 1832.23,2913.15 1819.37,2864.77 1810.80,2828.52 1790.37,2696.36 1760.86,2520.91 1751.83,2472.71 1748.56,2455.33 1748.14,2452.95 1742.61,2421.44 1739.48,2403.66 1718.04,2295.20 1705.13,2218.49 1703.95,2211.50 1657.23,1980.37 1634.13,1838.75 1633.18,1831.94 1614.58,1699.02 1613.88,1693.94 1608.98,1653.92 1607.53,1638.86 1600.91,1557.86 1598.86,1519.63 1595.25,1493.69 1594.72,1487.73 1588.57,1436.29 1587.83,1430.10 1583.64,1386.49 1575.22,1338.04 1568.88,1292.38 1561.68,1251.29 1558.08,1228.40 1543.47,1169.39 1540.32,1153.00">
        <lane id="143215060_0" index="0" disallow="tram rail_urban rail rail_electric ship" speed="27.78" length="1796.65" shape="1837.29,2923.00 1835.72,2917.36 1833.80,2912.62 1820.97,2864.37 1812.42,2828.20 1792.00,2696.10 1762.49,2520.62 1753.45,2472.41 1750.19,2455.02 1749.77,2452.67 1744.24,2421.15 1741.10,2403.35 1719.67,2294.90 1706.75,2218.22 1705.58,2211.20 1658.85,1980.07 1635.76,1838.50 1634.82,1831.71 1616.22,1698.79 1615.52,1693.73 1610.62,1653.74 1609.18,1638.71 1602.55,1557.75 1600.51,1519.48 1596.89,1493.50 1596.36,1487.56 1590.21,1436.09 1589.47,1429.93 1585.28,1386.27 1576.85,1337.79 1570.51,1292.12 1563.31,1251.02 1559.70,1228.08 1545.09,1169.04 1541.94,1152.69"/>
        <lane id="143215060_1" index="1" disallow="tram rail_urban rail rail_electric ship" speed="27.78" length="1796.65" shape="1834.12,2923.90 1832.59,2918.43 1830.66,2913.67 1817.77,2865.17 1809.18,2828.83 1788.74,2696.62 1759.24,2521.20 1750.21,2473.01 1746.94,2455.63 1746.52,2453.24 1740.98,2421.72 1737.86,2403.96 1716.42,2295.50 1703.50,2218.77 1702.33,2211.80 1655.61,1980.67 1632.50,1839.00 1631.55,1832.17 1612.95,1699.25 1612.24,1694.15 1607.34,1654.10 1605.89,1639.00 1599.26,1557.98 1597.22,1519.79 1593.61,1493.87 1593.08,1487.90 1586.93,1436.48 1586.19,1430.28 1582.01,1386.71 1573.59,1338.30 1567.25,1292.64 1560.05,1251.57 1556.46,1228.73 1541.86,1169.75 1538.70,1153.32"/>
    </edge>
    <edge id="23213553#0" from="cluster_1104241030_1104243944_1368829017_251105190" to="2876319778" priority="9" type="highway.primary" spreadType="center" shape="1827.90,2930.52 1817.01,2933.97 1789.79,2941.73">
        <lane id="23213553#0_0" index="0" disallow="tram rail_urban rail rail_electric ship" speed="27.78" length="35.92" shape="1823.44,2930.20 1816.53,2932.39 1789.01,2940.24"/>
        <lane id="23213553#0_1" index="1" disallow="tram rail_urban rail rail_electric ship" speed="27.78" length="35.92" shape="1824.44,2933.35 1817.48,2935.55 1789.91,2943.41"/>
    </edge>
    <edge id="23213553#1" from="2876319778" to="1383248183" priority="9" type="highway.primary" spreadType="center" shape="1789.79,2941.73 1702.06,2967.54 1679.53,2977.66">
        <lane id="23213553#1_0" index="0" disallow="tram rail_urban rail rail_electric ship" speed="27.78" length="107.62" shape="1781.14,2942.55 1701.48,2965.99 1678.85,2976.16"/>
        <lane id="23213553#1_1" index="1" disallow="tram rail_urban rail rail_electric ship" speed="27.78" length="107.62" shape="1782.07,2945.72 1702.63,2969.09 1680.20,2979.17"/>
    </edge>
    <edge id="256261589" from="cluster_1104241030_1104243944_1368829017_251105190" to="1497326586" priority="7" type="highway.secondary" spreadType="center" shape="1839.47,2936.01 1849.26,2935.26 1913.52,2929.02 1955.02,2922.99 1979.21,2920.48 2003.43,2916.12 2028.50,2912.62 2050.98,2908.09 2075.09,2901.27">
        <lane id="256261589_0" index="0" disallow="tram rail_urban rail rail_electric ship" speed="27.78" length="232.17" shape="1845.97,2937.17 1849.41,2936.91 1913.72,2930.65 1955.22,2924.63 1979.44,2922.12 2003.69,2917.74 2028.78,2914.25 2051.37,2909.70 2075.54,2902.86"/>
        <lane id="256261589_1" index="1" disallow="tram rail_urban rail rail_electric ship" speed="27.78" length="232.17" shape="1845.68,2933.88 1849.12,2933.62 1913.32,2927.38 1954.81,2921.35 1978.98,2918.85 2003.17,2914.49 2028.23,2910.99 2050.60,2906.49 2074.64,2899.68"/>
    </edge>
    <edge id="28043853" from="251105286" to="cluster_1104241030_1104243944_1368829017_251105190" priority="9" type="highway.primary" spreadType="center" shape="1130.32,-0.00 1131.85,3.65 1157.44,62.24 1179.08,111.80 1191.60,140.48 1232.35,218.83 1332.14,407.63 1339.32,430.52 1339.04,443.16 1338.98,455.88 1340.37,472.68 1341.37,487.13 1343.01,499.28 1366.72,576.68 1388.53,646.16 1400.65,684.69 1408.61,709.64 1412.40,723.01 1417.85,741.22 1422.89,758.07 1453.69,861.04 1487.03,974.45 1495.92,1002.59 1511.25,1061.89 1535.55,1155.90 1554.08,1233.18 1556.91,1251.70 1559.61,1269.43 1564.55,1293.25 1573.23,1350.81 1579.31,1387.25 1583.71,1429.96 1589.70,1482.93 1591.07,1495.05 1594.81,1520.71 1596.93,1557.28 1604.39,1654.61 1629.01,1839.55 1629.82,1845.03 1647.68,1966.12 1649.08,1972.64 1651.66,1984.55 1694.77,2213.94 1694.93,2214.70 1717.84,2329.41 1740.59,2458.68 1752.83,2522.14 1757.81,2551.60 1763.29,2586.14 1781.17,2698.81 1800.12,2813.08 1804.51,2836.08 1807.63,2848.19 1820.68,2898.65 1826.65,2919.23 1827.90,2930.52">
        <lane id="28043853_0" index="0" disallow="tram rail_urban rail rail_electric ship" speed="27.78" length="3027.99" shape="1128.80,0.64 1130.34,4.30 1155.92,62.90 1177.56,112.46 1190.11,141.19 1230.89,219.59 1330.61,408.27 1337.66,430.76 1337.39,443.14 1337.33,455.95 1338.73,472.81 1339.72,487.30 1341.39,499.64 1365.15,577.17 1386.95,646.65 1399.08,685.18 1407.03,710.11 1410.82,723.47 1416.27,741.70 1421.31,758.55 1452.11,861.51 1485.45,974.93 1494.33,1003.04 1509.66,1062.31 1533.95,1156.30 1552.46,1233.49 1555.28,1251.95 1557.98,1269.72 1562.93,1293.54 1571.61,1351.07 1577.68,1387.47 1582.07,1430.14 1588.06,1483.12 1589.44,1495.26 1593.17,1520.88 1595.28,1557.39 1602.75,1654.78 1627.37,1839.77 1628.19,1845.27 1646.05,1966.41 1647.47,1972.99 1650.04,1984.88 1693.15,2214.25 1693.31,2215.02 1716.22,2329.71 1738.97,2458.98 1751.20,2522.44 1756.18,2551.87 1761.66,2586.40 1779.54,2699.07 1798.49,2813.37 1802.89,2836.44 1806.03,2848.60 1819.09,2899.09 1825.02,2919.56 1825.77,2926.29"/>
        <lane id="28043853_1" index="1" disallow="tram rail_urban rail rail_electric ship" speed="27.78" length="3027.99" shape="1131.84,-0.64 1133.37,3.00 1158.95,61.58 1180.59,111.14 1193.09,139.77 1233.81,218.06 1333.66,406.99 1340.97,430.29 1340.69,443.19 1340.63,455.82 1342.02,472.56 1343.01,486.96 1344.62,498.93 1368.30,576.19 1390.10,645.66 1402.23,684.19 1410.19,709.16 1413.99,722.55 1419.43,740.75 1424.48,757.60 1455.27,860.57 1488.61,973.97 1497.51,1002.13 1512.85,1061.48 1537.15,1155.50 1555.70,1232.86 1558.54,1251.45 1561.23,1269.14 1566.17,1292.96 1574.86,1350.55 1580.95,1387.03 1585.35,1429.78 1591.34,1482.75 1592.71,1494.84 1596.46,1520.54 1598.57,1557.17 1606.03,1654.44 1630.64,1839.33 1631.45,1844.79 1649.30,1965.82 1650.69,1972.30 1653.27,1984.22 1696.40,2213.64 1696.55,2214.37 1719.46,2329.11 1742.21,2458.38 1754.45,2521.85 1759.43,2551.34 1764.92,2585.88 1782.80,2698.54 1801.74,2812.79 1806.12,2835.72 1809.23,2847.78 1822.27,2898.22 1828.27,2918.91 1828.99,2925.37"/>
    </edge>
    <edge id="283807085" from="2876319778" to="2876319749" priority="2" type="highway.service" spreadType="center" shape="1789.79,2941.73 1783.30,2939.48 1780.18,2937.12 1778.22,2929.86 1778.72,2923.01">
        <lane id="283807085_0" index="0" allow="delivery bicycle pedestrian" speed="5.56" length="16.04" shape="1781.49,2938.11 1780.18,2937.12 1778.22,2929.86 1778.72,2923.01"/>
    </edge>
    <edge id="580921886#0" from="5559661186" to="cluster_1104241030_1104243944_1368829017_251105190" priority="9" type="highway.primary" spreadType="center" shape="1791.61,2949.54 1818.26,2940.84 1831.63,2938.55">
        <lane id="580921886#0_0" index="0" disallow="tram rail_urban rail rail_electric ship" speed="27.78" length="36.29" shape="1792.12,2951.11 1818.66,2942.45 1826.91,2941.03"/>
        <lane id="580921886#0_1" index="1" disallow="tram rail_urban rail rail_electric ship" speed="27.78" length="36.29" shape="1791.10,2947.97 1817.86,2939.24 1825.89,2937.86"/>
    </edge>

    <tlLogic id="cluster_1104241030_1104243944_1368829017_251105190" type="static" programID="0" offset="0">
        <phase duration="45" state="rrrrrGGGggrrrrrGGGgg"/>
        <phase duration="45" state="GGGggrrrrrGGGggrrrrr"/>
    </tlLogic>

    <junction id="1104241032" type="dead_end" x="2386.11" y="4104.79" incLanes="" intLanes="" shape="2382.92,4105.42 2389.30,4104.17"/>
    <junction id="1104241038" type="dead_end" x="2391.16" y="4129.88" incLanes="133631823_0 133631823_1" intLanes="" shape="2388.14,4131.09 2394.18,4128.68"/>
    <junction id="1368814489" type="dead_end" x="1540.32" y="1153.00" incLanes="143215060_0 143215060_1" intLanes="" shape="1543.51,1152.39 1537.13,1153.62"/>
    <junction id="1368829019" type="dead_end" x="1971.70" y="2915.35" incLanes="" intLanes="" shape="1972.11,2918.58 1971.29,2912.13"/>
    <junction id="1383248183" type="dead_end" x="1679.53" y="2977.66" incLanes="23213553#1_0 23213553#1_1" intLanes="" shape="1678.20,2974.70 1680.86,2980.63"/>
    <junction id="1497326586" type="dead_end" x="2075.09" y="2901.27" incLanes="256261589_0 256261589_1" intLanes="" shape="2075.97,2904.39 2074.20,2898.14"/>