<?xml version="1.0" encoding="UTF-8"?>

<!-- generated on Fri Feb  2 17:33:40 2018 by SUMO netconvert Version 0.32.0
<?xml version="1.0" encoding="UTF-8"?>

<configuration xmlns:xsi="http://www.w3.org/2001/XMLSchema-instance" xsi:noNamespaceSchemaLocation="http://sumo.dlr.de/xsd/netconvertConfiguration.xsd">

    <input>
        <sumo-net-file value="traci.net.xml"/>
    </input>

    <output>
        <output-file value="traci_left.net.xml"/>
    </output>

    <processing>
        <no-turnarounds value="true"/>
        <offset.disable-normalization value="true"/>
        <lefthand value="true"/>
        <junctions.corner-detail value="0"/>
        <rectangular-lane-cut value="false"/>
        <walkingareas value="false"/>
    </processing>

</configuration>
-->

<net version="0.27" lefthand="true" xmlns:xsi="http://www.w3.org/2001/XMLSchema-instance" xsi:noNamespaceSchemaLocation="http://sumo.dlr.de/xsd/net_file.xsd">

    <location netOffset="0.00,0.00" convBoundary="-205.11,-185.03,474.74,306.69" origBoundary="-10000000000.00,-10000000000.00,10000000000.00,10000000000.00" projParameter="!"/>

    <edge id=":gneJ11_0" function="internal">
        <lane id=":gneJ11_0_0" index="0" speed="13.89" length="16.13" shape="101.62,31.18 85.49,31.17"/>
    </edge>
    <edge id=":gneJ11_1" function="internal">
        <lane id=":gneJ11_1_0" index="0" speed="13.89" length="14.04" shape="101.62,31.18 95.93,32.08 91.88,34.82 90.29,37.81"/>
    </edge>
    <edge id=":gneJ11_2" function="internal">
        <lane id=":gneJ11_2_0" index="0" speed="13.89" length="5.18" shape="101.62,34.48 98.82,34.07 96.81,32.85"/>
    </edge>
    <edge id=":gneJ11_3" function="internal">
        <lane id=":gneJ11_3_0" index="0" speed="13.89" length="16.12" shape="101.62,34.48 85.50,34.47"/>
    </edge>
    <edge id=":gneJ11_16" function="internal">
        <lane id=":gneJ11_16_0" index="0" speed="13.89" length="8.27" shape="90.29,37.81 89.44,39.40 88.63,45.82"/>
    </edge>
    <edge id=":gneJ11_17" function="internal">
        <lane id=":gneJ11_17_0" index="0" speed="13.89" length="5.19" shape="96.81,32.85 95.60,30.84 95.19,28.03"/>
    </edge>
    <edge id=":gneJ11_4" function="internal">
        <lane id=":gneJ11_4_0" index="0" speed="13.89" length="17.81" shape="98.53,45.82 98.49,28.01"/>
    </edge>
    <edge id=":gneJ11_5" function="internal">
        <lane id=":gneJ11_5_0" index="0" speed="13.89" length="22.36" shape="98.53,45.82 97.72,39.40 95.27,34.82 91.20,32.08 85.49,31.17"/>
    </edge>
    <edge id=":gneJ11_6" function="internal">
        <lane id=":gneJ11_6_0" index="0" speed="13.89" length="10.32" shape="95.23,45.82 95.63,43.03 96.83,41.03 98.83,39.82 101.63,39.42"/>
    </edge>
    <edge id=":gneJ11_7" function="internal">
        <lane id=":gneJ11_7_0" index="0" speed="13.89" length="17.80" shape="95.23,45.82 95.19,28.03"/>
    </edge>
    <edge id=":gneJ11_8" function="internal">
        <lane id=":gneJ11_8_0" index="0" speed="13.89" length="16.10" shape="85.53,42.71 101.63,42.72"/>
    </edge>
    <edge id=":gneJ11_9" function="internal">
        <lane id=":gneJ11_9_0" index="0" speed="13.89" length="14.04" shape="85.53,42.71 91.23,41.80 95.29,39.05 96.85,36.08"/>
    </edge>
    <edge id=":gneJ11_10" function="internal">
        <lane id=":gneJ11_10_0" index="0" speed="13.89" length="5.28" shape="85.52,39.41 88.32,39.82 90.33,41.02 90.38,41.11"/>
    </edge>
    <edge id=":gneJ11_11" function="internal">
        <lane id=":gneJ11_11_0" index="0" speed="13.89" length="16.11" shape="85.52,39.41 101.63,39.42"/>
    </edge>
    <edge id=":gneJ11_18" function="internal">
        <lane id=":gneJ11_18_0" index="0" speed="13.89" length="8.33" shape="96.85,36.08 97.71,34.45 98.49,28.01"/>
    </edge>
    <edge id=":gneJ11_19" function="internal">
        <lane id=":gneJ11_19_0" index="0" speed="13.89" length="5.06" shape="90.38,41.11 91.53,43.02 91.93,45.82"/>
    </edge>
    <edge id=":gneJ11_12" function="internal">
        <lane id=":gneJ11_12_0" index="0" speed="13.89" length="17.76" shape="88.59,28.06 88.63,45.82"/>
    </edge>
    <edge id=":gneJ11_13" function="internal">
        <lane id=":gneJ11_13_0" index="0" speed="13.89" length="22.33" shape="88.59,28.06 89.43,34.48 91.89,39.06 95.95,41.81 101.63,42.72"/>
    </edge>
    <edge id=":gneJ11_14" function="internal">
        <lane id=":gneJ11_14_0" index="0" speed="13.89" length="10.34" shape="91.89,28.04 91.50,30.85 90.31,32.86 88.31,34.07 85.50,34.47"/>
    </edge>
    <edge id=":gneJ11_15" function="internal">
        <lane id=":gneJ11_15_0" index="0" speed="13.89" length="17.78" shape="91.89,28.04 91.93,45.82"/>
    </edge>

    <edge id="-gneE5.0" from="gneJ11" to="gneJ7" priority="1">
        <lane id="-gneE5.0_0" index="0" speed="13.89" length="290.62" shape="85.49,31.17 -205.13,32.07"/>
        <lane id="-gneE5.0_1" index="1" speed="13.89" length="290.62" shape="85.50,34.47 -205.12,35.37"/>
    </edge>
    <edge id="-gneE5.75" from="gneJ8" to="gneJ11" priority="1">
        <lane id="-gneE5.75_0" index="0" speed="13.89" length="373.13" shape="474.76,32.41 101.62,31.18"/>
        <lane id="-gneE5.75_1" index="1" speed="13.89" length="373.13" shape="474.75,35.71 101.62,34.48"/>
    </edge>
    <edge id="-gneE6.0" from="gneJ11" to="gneJ9" priority="1">
        <lane id="-gneE6.0_0" index="0" speed="13.89" length="260.87" shape="88.63,45.82 88.66,306.69"/>
        <lane id="-gneE6.0_1" index="1" speed="13.89" length="260.87" shape="91.93,45.82 91.96,306.69"/>
    </edge>
    <edge id="-gneE6.95" from="gneJ10" to="gneJ11" priority="1">
        <lane id="-gneE6.95_0" index="0" speed="13.89" length="213.07" shape="87.45,-185.00 88.59,28.06"/>
        <lane id="-gneE6.95_1" index="1" speed="13.89" length="213.07" shape="90.75,-185.02 91.89,28.04"/>
    </edge>
    <edge id="gneE5.0" from="gneJ7" to="gneJ11" priority="1" shape="-205.11,37.02 93.95,37.78">
        <lane id="gneE5.0_0" index="0" speed="13.89" length="290.64" shape="-205.12,41.97 85.53,42.71"/>
        <lane id="gneE5.0_1" index="1" speed="13.89" length="290.64" shape="-205.11,38.67 85.52,39.41"/>
    </edge>
    <edge id="gneE5.75" from="gneJ11" to="gneJ8" priority="1" shape="93.95,37.78 474.74,37.36">
        <lane id="gneE5.75_0" index="0" speed="13.89" length="373.12" shape="101.63,42.72 474.75,42.31"/>
        <lane id="gneE5.75_1" index="1" speed="13.89" length="373.12" shape="101.63,39.42 474.74,39.01"/>
    </edge>
    <edge id="gneE6.0" from="gneJ9" to="gneJ11" priority="1">
        <lane id="gneE6.0_0" index="0" speed="13.89" length="260.87" shape="98.56,306.69 98.53,45.82"/>
        <lane id="gneE6.0_1" index="1" speed="13.89" length="260.87" shape="95.26,306.69 95.23,45.82"/>
    </edge>
    <edge id="gneE6.95" from="gneJ11" to="gneJ10" priority="1">
        <lane id="gneE6.95_0" index="0" speed="13.89" length="213.07" shape="98.49,28.01 97.35,-185.06"/>
        <lane id="gneE6.95_1" index="1" speed="13.89" length="213.07" shape="95.19,28.03 94.05,-185.04"/>
    </edge>

    <junction id="gneJ10" type="dead_end" x="92.40" y="-185.03" incLanes="gneE6.95_0 gneE6.95_1" intLanes="" shape="92.35,-185.03 98.95,-185.06 92.45,-185.03"/>
    <junction id="gneJ11" type="priority" x="93.58" y="36.10" incLanes="-gneE5.75_0 -gneE5.75_1 gneE6.0_0 gneE6.0_1 gneE5.0_0 gneE5.0_1 -gneE6.95_0 -gneE6.95_1" intLanes=":gneJ11_0_0 :gneJ11_16_0 :gneJ11_17_0 :gneJ11_3_0 :gneJ11_4_0 :gneJ11_5_0 :gneJ11_6_0 :gneJ11_7_0 :gneJ11_8_0 :gneJ11_18_0 :gneJ11_19_0 :gneJ11_11_0 :gneJ11_12_0 :gneJ11_13_0 :gneJ11_14_0 :gneJ11_15_0" shape="101.61,29.58 101.63,44.32 100.13,45.82 87.03,45.82 85.53,44.31 85.49,29.57 86.99,28.07 100.09,28.00">
        <request index="0" response="0000000000000000" foes="1111001010110000" cont="0"/>
        <request index="1" response="0000110100000000" foes="1011110110110000" cont="1"/>
        <request index="2" response="0000000000000000" foes="0000001010010000" cont="1"/>
        <request index="3" response="0000000000000000" foes="1111001010110000" cont="0"/>
        <request index="4" response="0000101100001111" foes="0010101100001111" cont="0"/>
        <request index="5" response="1101101100001011" foes="1101101100001011" cont="0"/>
        <request index="6" response="0000100100000000" foes="0010100100000000" cont="0"/>
        <request index="7" response="0000101100001111" foes="0010101100001111" cont="0"/>
        <request index="8" response="0000000000000000" foes="1011000011110010" cont="0"/>
        <request index="9" response="0000000000001101" foes="1011000010111101" cont="1"/>
        <request index="10" response="0000000000000000" foes="1001000000000010" cont="1"/>
        <request index="11" response="0000000000000000" foes="1011000011110010" cont="0"/>
        <request index="12" response="0000111100001011" foes="0000111100101011" cont="0"/>
        <request index="13" response="0000101111011011" foes="0000101111011011" cont="0"/>
        <request index="14" response="0000000000001001" foes="0000000000101001" cont="0"/>
        <request index="15" response="0000111100001011" foes="0000111100101011" cont="0"/>
    </junction>
    <junction id="gneJ7" type="dead_end" x="-205.11" y="37.02" incLanes="-gneE5.0_0 -gneE5.0_1" intLanes="" shape="-205.11,37.07 -205.13,43.57 -205.13,30.47"/>
    <junction id="gneJ8" type="dead_end" x="474.74" y="37.36" incLanes="gneE5.75_0 gneE5.75_1" intLanes="" shape="474.74,37.31 474.76,30.81 474.75,43.91"/>
    <junction id="gneJ9" type="dead_end" x="93.61" y="306.69" incLanes="-gneE6.0_0 -gneE6.0_1" intLanes="" shape="93.66,306.69 87.06,306.69 93.56,306.69"/>

    <junction id=":gneJ11_16_0" type="internal" x="90.29" y="37.81" incLanes=":gneJ11_1_0 gneE5.0_0 gneE5.0_1" intLanes=":gneJ11_3_0 :gneJ11_4_0 :gneJ11_5_0 :gneJ11_7_0 :gneJ11_8_0 :gneJ11_10_0 :gneJ11_11_0 :gneJ11_12_0 :gneJ11_13_0 :gneJ11_15_0"/>
    <junction id=":gneJ11_17_0" type="internal" x="96.81" y="32.85" incLanes=":gneJ11_2_0 -gneE5.75_0" intLanes=":gneJ11_0_0 :gneJ11_1_0 :gneJ11_4_0 :gneJ11_7_0 :gneJ11_9_0"/>
    <junction id=":gneJ11_18_0" type="internal" x="96.85" y="36.08" incLanes=":gneJ11_9_0 -gneE5.75_0 -gneE5.75_1" intLanes=":gneJ11_0_0 :gneJ11_2_0 :gneJ11_3_0 :gneJ11_4_0 :gneJ11_5_0 :gneJ11_7_0 :gneJ11_11_0 :gneJ11_12_0 :gneJ11_13_0 :gneJ11_15_0"/>
    <junction id=":gneJ11_19_0" type="internal" x="90.38" y="41.11" incLanes=":gneJ11_10_0 gneE5.0_0" intLanes=":gneJ11_1_0 :gneJ11_8_0 :gneJ11_9_0 :gneJ11_12_0 :gneJ11_15_0"/>

    <connection from="-gneE5.75" to="-gneE5.0" fromLane="0" toLane="0" via=":gneJ11_0_0" dir="s" state="M"/>
    <connection from="-gneE5.75" to="-gneE6.0" fromLane="0" toLane="0" via=":gneJ11_1_0" dir="r" state="m"/>
    <connection from="-gneE5.75" to="gneE6.95" fromLane="1" toLane="1" via=":gneJ11_2_0" dir="l" state="M"/>
    <connection from="-gneE5.75" to="-gneE5.0" fromLane="1" toLane="1" via=":gneJ11_3_0" dir="s" state="M"/>
    <connection from="-gneE6.95" to="-gneE6.0" fromLane="0" toLane="0" via=":gneJ11_12_0" dir="s" state="m"/>
    <connection from="-gneE6.95" to="gneE5.75" fromLane="0" toLane="0" via=":gneJ11_13_0" dir="r" state="m"/>
    <connection from="-gneE6.95" to="-gneE5.0" fromLane="1" toLane="1" via=":gneJ11_14_0" dir="l" state="m"/>
    <connection from="-gneE6.95" to="-gneE6.0" fromLane="1" toLane="1" via=":gneJ11_15_0" dir="s" state="m"/>
    <connection from="gneE5.0" to="gneE5.75" fromLane="0" toLane="0" via=":gneJ11_8_0" dir="s" state="M"/>
    <connection from="gneE5.0" to="gneE6.95" fromLane="0" toLane="0" via=":gneJ11_9_0" dir="r" state="m"/>
    <connection from="gneE5.0" to="-gneE6.0" fromLane="1" toLane="1" via=":gneJ11_10_0" dir="l" state="M"/>
    <connection from="gneE5.0" to="gneE5.75" fromLane="1" toLane="1" via=":gneJ11_11_0" dir="s" state="M"/>
    <connection from="gneE6.0" to="gneE6.95" fromLane="0" toLane="0" via=":gneJ11_4_0" dir="s" state="m"/>
    <connection from="gneE6.0" to="-gneE5.0" fromLane="0" toLane="0" via=":gneJ11_5_0" dir="r" state="m"/>
    <connection from="gneE6.0" to="gneE5.75" fromLane="1" toLane="1" via=":gneJ11_6_0" dir="l" state="m"/>
    <connection from="gneE6.0" to="gneE6.95" fromLane="1" toLane="1" via=":gneJ11_7_0" dir="s" state="m"/>

    <connection from=":gneJ11_0" to="-gneE5.0" fromLane="0" toLane="0" dir="s" state="M"/>
    <connection from=":gneJ11_1" to="-gneE6.0" fromLane="0" toLane="0" via=":gneJ11_16_0" dir="r" state="m"/>
    <connection from=":gneJ11_16" to="-gneE6.0" fromLane="0" toLane="0" dir="r" state="M"/>
    <connection from=":gneJ11_2" to="gneE6.95" fromLane="0" toLane="1" via=":gneJ11_17_0" dir="l" state="m"/>
    <connection from=":gneJ11_17" to="gneE6.95" fromLane="0" toLane="1" dir="l" state="M"/>
    <connection from=":gneJ11_3" to="-gneE5.0" fromLane="0" toLane="1" dir="s" state="M"/>
    <connection from=":gneJ11_4" to="gneE6.95" fromLane="0" toLane="0" dir="s" state="M"/>
    <connection from=":gneJ11_5" to="-gneE5.0" fromLane="0" toLane="0" dir="r" state="M"/>
    <connection from=":gneJ11_6" to="gneE5.75" fromLane="0" toLane="1" dir="l" state="M"/>
    <connection from=":gneJ11_7" to="gneE6.95" fromLane="0" toLane="1" dir="s" state="M"/>
    <connection from=":gneJ11_8" to="gneE5.75" fromLane="0" toLane="0" dir="s" state="M"/>
    <connection from=":gneJ11_9" to="gneE6.95" fromLane="0" toLane="0" via=":gneJ11_18_0" dir="r" state="m"/>
    <connection from=":gneJ11_18" to="gneE6.95" fromLane="0" toLane="0" dir="r" state="M"/>
    <connection from=":gneJ11_10" to="-gneE6.0" fromLane="0" toLane="1" via=":gneJ11_19_0" dir="l" state="m"/>
    <connection from=":gneJ11_19" to="-gneE6.0" fromLane="0" toLane="1" dir="l" state="M"/>
    <connection from=":gneJ11_11" to="gneE5.75" fromLane="0" toLane="1" dir="s" state="M"/>
    <connection from=":gneJ11_12" to="-gneE6.0" fromLane="0" toLane="0" dir="s" state="M"/>
    <connection from=":gneJ11_13" to="gneE5.75" fromLane="0" toLane="0" dir="r" state="M"/>
    <connection from=":gneJ11_14" to="-gneE5.0" fromLane="0" toLane="1" dir="l" state="M"/>
    <connection from=":gneJ11_15" to="-gneE6.0" fromLane="0" toLane="1" dir="s" state="M"/>

</net>
