<?xml version="1.0" encoding="UTF-8"?>

<!-- generated on Tue Mar 13 16:08:51 2018 by SUMO polyconvert Version 0.32.0
<?xml version="1.0" encoding="UTF-8"?>

<configuration xmlns:xsi="http://www.w3.org/2001/XMLSchema-instance" xsi:noNamespaceSchemaLocation="http://sumo.dlr.de/xsd/polyconvertConfiguration.xsd">

    <input>
        <net-file value="lalbagh.net.xml"/>
        <osm-files value="lalbagh.osm"/>
        <type-file value="typemap.xml"/>
    </input>

    <output>
        <output-file value="lalbagh.poly.xml"/>
    </output>

    <processing>
        <poi-layer-offset value="5"/>
    </processing>

</configuration>
-->

<additional xmlns:xsi="http://www.w3.org/2001/XMLSchema-instance" xsi:noNamespaceSchemaLocation="http://sumo.dlr.de/xsd/additional_file.xsd">
    <location netOffset="-779913.92,-1432746.54" convBoundary="-278.83,-411.77,4520.40,1804.17" origBoundary="77.577437,12.943811,77.621594,12.963843" projParameter="+proj=utm +zone=43 +ellps=WGS84 +datum=WGS84 +units=m +no_defs"/>

    <poly id="113287087" type="residential" color="235,235,227" fill="1" layer="-3.00" shape="772.93,770.25 738.64,674.91 765.24,667.15 783.26,670.24 801.33,668.68 820.71,652.67 829.43,655.07 856.48,744.47 800.10,759.01 772.93,770.25"/>
    <poly id="129888684" type="amenity" color="237,199,199" fill="1" layer="-1.00" shape="899.48,756.17 896.09,745.43 903.11,742.02 896.81,732.42 909.98,725.90 909.42,722.70 936.91,711.99 946.74,728.16 936.41,732.82 941.91,743.73 926.92,748.93 935.00,765.08 914.75,771.95 910.16,765.54 903.43,768.36 899.48,756.17"/>
    <poly id="129888685" type="amenity" color="237,199,199" fill="1" layer="-1.00" shape="737.41,628.36 756.64,656.63 769.30,671.51 858.15,639.71 833.99,574.68 771.82,595.43 755.93,611.48 737.41,628.36"/>
    <poly id="131442463" type="amenity" color="237,199,199" fill="1" layer="-1.00" shape="1207.53,417.25 1185.81,318.94 1256.49,298.53 1276.53,389.89 1207.53,417.25"/>
    <poly id="131487139" type="amenity" color="237,199,199" fill="1" layer="-1.00" shape="728.99,664.81 725.47,655.21 739.86,647.30 751.60,650.67 754.14,657.85 728.99,664.81"/>
    <poly id="138991391" type="residential" color="235,235,227" fill="1" layer="-3.00" shape="1088.26,764.98 876.40,833.85 759.44,864.09 722.03,874.19 638.43,895.37 690.23,1162.64 743.19,1147.79 760.85,1212.55 710.44,1226.92 743.16,1271.44 1236.84,1118.28 1278.53,1029.73 1311.95,966.74 1088.26,764.98"/>
    <poly id="138991394" type="commercial" color="209,209,204" fill="1" layer="-3.00" shape="1494.88,1078.89 1398.04,1110.55 1362.55,1013.01 1451.75,971.21 1494.88,1078.89"/>
    <poly id="138991398" type="building" color="255,230,230" fill="1" layer="-1.00" shape="1363.49,830.48 1406.85,814.40 1374.77,729.02 1331.41,745.09 1363.49,830.48"/>
    <poly id="138991399" type="building" color="255,230,230" fill="1" layer="-1.00" shape="1362.37,847.84 1335.22,857.56 1298.58,756.63 1325.73,746.91 1362.37,847.84"/>
    <poly id="138991400" type="building" color="255,230,230" fill="1" layer="-1.00" shape="1386.00,1021.13 1456.09,996.18 1480.82,1064.75 1410.74,1089.71 1386.00,1021.13"/>
    <poly id="138991403" type="building" color="255,230,230" fill="1" layer="-1.00" shape="1307.72,837.66 1318.56,833.66 1298.22,779.37 1287.38,783.39 1307.72,837.66"/>
    <poly id="138991404" type="amenity" color="237,199,199" fill="1" layer="-1.00" shape="1419.74,910.87 1451.75,971.21 1362.55,1013.01 1344.34,963.23 1419.74,910.87"/>
    <poly id="152462759" type="leisure" color="207,245,201" fill="1" layer="-2.00" shape="1143.27,451.53 1141.19,453.11 1140.11,454.69 1139.40,457.03 1139.48,459.11 1140.59,461.79 1141.16,462.51 1142.74,463.83 1145.50,464.81 1145.71,464.83 1148.16,464.66 1149.97,463.93 1152.12,462.04 1153.21,459.93 1153.52,458.14 1153.35,456.26 1152.10,453.58 1151.71,453.13 1149.77,451.61 1147.59,450.88 1145.41,450.87 1143.27,451.53"/>
    <poly id="152462761" type="building" color="255,230,230" fill="1" layer="-1.00" shape="1420.31,1077.87 1400.77,1024.02 1452.23,1005.59 1471.77,1059.44 1420.31,1077.87"/>
    <poly id="152462761#1" type="leisure" color="207,245,201" fill="1" layer="-2.00" shape="1420.31,1077.87 1400.77,1024.02 1452.23,1005.59 1471.77,1059.44 1420.31,1077.87"/>
    <poly id="15802464" type="tourism" color="207,245,201" fill="1" layer="-2.00" shape="38.05,69.48 47.12,75.47 45.02,109.71 57.63,132.75 199.29,205.95 224.72,225.59 239.70,243.44 364.76,542.22 446.33,702.64 466.40,713.07 548.72,718.41 565.68,715.49 589.43,709.71 632.12,692.26 751.86,585.82 775.87,573.38 1099.71,464.95 1110.03,457.56 1122.45,426.34 1126.62,422.48 1137.94,418.48 1143.55,416.81 1185.20,433.71 1198.91,428.17 1170.44,317.41 1254.34,287.56 1260.32,257.61 1434.18,180.54 1424.09,158.74 1353.48,96.64 1308.85,70.81 1184.01,5.22 1137.81,-50.10 1091.48,-92.81 1077.18,-105.04 1062.21,-115.39 884.83,-127.87 881.18,-121.77 875.74,-117.13 866.73,-116.32 864.59,-117.02 858.88,-118.87 853.84,-122.56 851.81,-124.91 850.10,-127.57 848.06,-132.10 848.03,-137.53 684.58,-188.92 646.55,-214.95 615.75,-241.68 570.75,-336.19 561.66,-380.03 542.11,-396.23 303.32,-404.39 284.59,-406.75 271.45,-409.27 45.65,-411.77 33.04,-400.63 31.49,-185.51 45.79,-178.88 45.94,-140.58 35.64,-140.51 35.01,-89.86 26.76,-90.23 25.45,-32.16 22.89,44.11 27.83,58.01 38.05,69.48"/>
    <poly id="15802464#1" type="tourism" color="207,245,201" fill="1" layer="-2.00" shape="38.05,69.48 47.12,75.47 45.02,109.71 57.63,132.75 199.29,205.95 224.72,225.59 239.70,243.44 364.76,542.22 446.33,702.64 466.40,713.07 548.72,718.41 565.68,715.49 589.43,709.71 632.12,692.26 751.86,585.82 775.87,573.38 1099.71,464.95 1110.03,457.56 1122.45,426.34 1126.62,422.48 1137.94,418.48 1143.55,416.81 1185.20,433.71 1198.91,428.17 1170.44,317.41 1254.34,287.56 1260.32,257.61 1434.18,180.54 1424.09,158.74 1353.48,96.64 1308.85,70.81 1184.01,5.22 1137.81,-50.10 1091.48,-92.81 1077.18,-105.04 1062.21,-115.39 884.83,-127.87 881.18,-121.77 875.74,-117.13 866.73,-116.32 864.59,-117.02 858.88,-118.87 853.84,-122.56 851.81,-124.91 850.10,-127.57 848.06,-132.10 848.03,-137.53 684.58,-188.92 646.55,-214.95 615.75,-241.68 570.75,-336.19 561.66,-380.03 542.11,-396.23 303.32,-404.39 284.59,-406.75 271.45,-409.27 45.65,-411.77 33.04,-400.63 31.49,-185.51 45.79,-178.88 45.94,-140.58 35.64,-140.51 35.01,-89.86 26.76,-90.23 25.45,-32.16 22.89,44.11 27.83,58.01 38.05,69.48"/>
    <poly id="172899266" type="amenity" color="237,199,199" fill="1" layer="-1.00" shape="1485.75,750.98 1554.23,691.89 1518.98,648.93 1448.84,709.82 1485.75,750.98"/>
    <poly id="172899327" type="industrial" color="209,209,204" fill="1" layer="-3.00" shape="1483.92,774.63 1505.56,803.14 1566.49,758.88 1540.41,723.49 1483.92,774.63"/>
    <poly id="172899336" type="industrial" color="209,209,204" fill="1" layer="-3.00" shape="1541.99,543.11 1618.34,636.32 1554.23,691.89 1518.98,648.93 1448.84,709.82 1403.36,655.36 1445.30,630.42 1541.99,543.11"/>
    <poly id="232207299" type="building" color="255,230,230" fill="1" layer="-1.00" shape="917.81,455.42 915.94,444.95 921.41,443.66 921.14,442.32 932.23,440.35 934.67,454.27 923.97,456.19 923.65,454.61 917.81,455.42"/>
    <poly id="232346010" type="building" color="255,230,230" fill="1" layer="-1.00" shape="640.44,609.19 637.41,602.93 641.06,601.19 639.80,598.60 647.08,595.12 644.97,590.76 650.77,588.00 646.58,579.33 659.82,573.01 674.35,603.04 657.54,611.07 654.75,605.30 645.43,609.74 644.28,607.36 640.44,609.19"/>
    <poly id="254297790" type="amenity" color="237,199,199" fill="1" layer="-1.00" shape="1114.07,761.90 1136.37,831.28 1159.25,843.66 1197.22,831.60 1173.86,752.08 1165.11,753.73 1162.55,747.34 1114.07,761.90"/>
    <poly id="254297790#1" type="building" color="255,230,230" fill="1" layer="-1.00" shape="1114.07,761.90 1136.37,831.28 1159.25,843.66 1197.22,831.60 1173.86,752.08 1165.11,753.73 1162.55,747.34 1114.07,761.90"/>
    <poly id="28451526" type="amenity" color="237,199,199" fill="1" layer="-1.00" shape="1412.70,812.90 1453.60,782.37 1485.75,750.98 1448.84,709.82 1403.36,655.36 1357.91,678.06 1259.58,717.28 1323.71,895.04 1412.70,812.90"/>
    <poly id="28451526#1" type="commercial" color="209,209,204" fill="1" layer="-3.00" shape="1412.70,812.90 1453.60,782.37 1485.75,750.98 1448.84,709.82 1403.36,655.36 1357.91,678.06 1259.58,717.28 1323.71,895.04 1412.70,812.90"/>
    <poly id="323852394" type="parking" color="184,184,179" fill="1" layer="-1.00" shape="463.72,907.45 524.53,886.34 527.05,860.14 533.61,858.20 544.19,781.13 539.11,761.34 514.65,769.58 509.99,757.55 444.88,782.37 469.05,853.05 451.37,860.37 463.72,907.45"/>
    <poly id="323852398" type="amenity" color="237,199,199" fill="1" layer="-1.00" shape="611.38,906.92 628.34,993.76 581.69,998.89 551.82,926.10 611.38,906.92"/>
    <poly id="323852399" type="building" color="255,230,230" fill="1" layer="-1.00" shape="600.35,970.54 606.53,955.61 609.83,927.42 588.23,925.45 570.36,927.52 568.08,954.98 571.72,967.50 600.35,970.54"/>
    <poly id="323852400" type="building" color="255,230,230" fill="1" layer="-1.00" shape="459.84,793.76 536.54,766.56 528.61,855.66 522.79,858.35 519.09,876.30 475.22,889.09 466.92,865.27 483.31,859.44 459.84,793.76"/>
    <poly id="324204464" type="commercial" color="209,209,204" fill="1" layer="-3.00" shape="648.35,1064.55 661.21,1126.12 562.88,1140.03 544.77,1078.03 648.35,1064.55"/>
    <poly id="335369723" type="amenity" color="237,199,199" fill="1" layer="-1.00" shape="906.14,548.96 943.23,648.46 870.05,672.42 858.15,639.71 833.99,574.68 906.14,548.96"/>
    <poly id="335369763" type="landuse" color="194,194,130" fill="1" layer="-3.00" shape="1076.00,277.24 1081.15,275.22 1127.11,400.94 1122.07,402.73 1076.00,277.24"/>
    <poly id="335369764" type="landuse" color="194,194,130" fill="1" layer="-3.00" shape="573.78,732.61 580.06,735.54 585.90,741.48 588.89,731.46 592.74,727.58 584.07,728.93 573.78,732.61"/>
    <poly id="335369767" type="industrial" color="209,209,204" fill="1" layer="-3.00" shape="906.14,548.96 943.23,648.46 958.32,688.90 992.83,783.50 1215.88,708.49 1161.01,548.67 1106.97,566.39 1081.18,491.99 906.14,548.96"/>
    <poly id="335371929" type="building" color="255,230,230" fill="1" layer="-1.00" shape="752.32,548.42 754.14,556.94 781.93,551.09 780.10,542.56 752.32,548.42"/>
    <poly id="335371930" type="building" color="255,230,230" fill="1" layer="-1.00" shape="718.86,597.29 722.00,603.85 703.38,612.66 700.23,606.11 718.86,597.29"/>
    <poly id="335371931" type="building" color="255,230,230" fill="1" layer="-1.00" shape="726.07,542.09 722.03,528.76 742.90,522.52 746.94,535.83 726.07,542.09"/>
    <poly id="335371932" type="building" color="255,230,230" fill="1" layer="-1.00" shape="983.71,479.05 976.40,480.67 970.72,455.32 978.03,453.70 983.71,479.05"/>
    <poly id="335371933" type="building" color="255,230,230" fill="1" layer="-1.00" shape="968.08,482.22 942.12,486.45 938.80,466.29 964.76,462.07 968.08,482.22"/>
    <poly id="335371934" type="building" color="255,230,230" fill="1" layer="-1.00" shape="725.25,588.22 723.24,579.79 748.20,573.91 743.41,553.81 749.78,552.31 756.59,580.83 725.25,588.22"/>
    <poly id="335704608" type="landuse" color="194,194,130" fill="1" layer="-3.00" shape="510.74,452.77 499.63,409.84 506.58,410.75 511.68,410.12 515.08,408.64 518.69,404.97 529.79,447.57 524.37,447.00 517.91,447.79 514.17,450.11 510.74,452.77"/>
    <poly id="335704609" type="landuse" color="194,194,130" fill="1" layer="-3.00" shape="520.67,454.13 524.43,453.91 527.98,455.14 530.79,457.62 532.43,460.98 532.64,464.71 531.41,468.24 528.90,471.03 525.52,472.65 521.77,472.87 518.23,471.65 515.42,469.16 513.78,465.80 513.56,462.07 514.80,458.54 517.29,455.76 520.67,454.13"/>
    <poly id="335704610" type="landuse" color="194,194,130" fill="1" layer="-3.00" shape="537.50,456.92 525.30,405.37 540.54,408.73 554.73,415.45 565.33,424.33 574.38,435.38 579.69,446.89 537.50,456.92"/>
    <poly id="335704611" type="landuse" color="194,194,130" fill="1" layer="-3.00" shape="519.56,519.80 507.85,469.94 466.34,479.97 472.50,492.85 481.88,504.41 494.18,513.14 506.01,518.14 519.56,519.80"/>
    <poly id="335704612" type="landuse" color="194,194,130" fill="1" layer="-3.00" shape="551.38,511.35 540.67,462.69 581.17,452.31 581.92,461.41 577.98,481.28 570.54,495.70 560.26,506.72 551.38,511.35"/>
    <poly id="335704613" type="landuse" color="194,194,130" fill="1" layer="-3.00" shape="516.75,478.96 525.04,514.63 530.51,511.14 538.50,509.70 543.42,509.92 535.12,474.94 528.97,478.41 523.19,479.70 516.75,478.96"/>
    <poly id="335704614" type="landuse" color="194,194,130" fill="1" layer="-3.00" shape="507.22,465.04 464.87,475.07 463.64,462.58 465.49,447.43 470.19,435.00 476.92,424.11 484.29,417.43 492.49,412.12 507.22,465.04"/>
    <poly id="345947446" type="building" color="255,230,230" fill="1" layer="-1.00" shape="1311.00,1106.83 1318.90,1104.60 1316.02,1094.62 1308.13,1096.85 1311.00,1106.83"/>
    <poly id="345947464" type="building" color="255,230,230" fill="1" layer="-1.00" shape="1286.05,1075.15 1300.71,1073.83 1299.16,1063.57 1293.52,1060.28 1286.05,1075.15"/>
    <poly id="345947498" type="building" color="255,230,230" fill="1" layer="-1.00" shape="1304.18,1082.87 1320.68,1078.56 1318.10,1068.80 1301.59,1073.13 1304.18,1082.87"/>
    <poly id="345947509" type="building" color="255,230,230" fill="1" layer="-1.00" shape="1340.43,1095.93 1357.02,1090.85 1353.84,1080.58 1337.24,1085.65 1340.43,1095.93"/>
    <poly id="345947519" type="building" color="255,230,230" fill="1" layer="-1.00" shape="1297.87,1050.96 1307.68,1046.86 1304.73,1039.93 1300.89,1044.80 1297.87,1050.96"/>
    <poly id="345947535" type="building" color="255,230,230" fill="1" layer="-1.00" shape="1342.47,1117.23 1366.98,1109.72 1361.38,1091.66 1336.86,1099.16 1342.47,1117.23"/>
    <poly id="345947542" type="building" color="255,230,230" fill="1" layer="-1.00" shape="1314.19,1049.97 1325.36,1046.56 1321.64,1034.55 1310.47,1037.97 1314.19,1049.97"/>
    <poly id="345947546" type="building" color="255,230,230" fill="1" layer="-1.00" shape="1316.86,1010.55 1328.27,1006.02 1322.32,991.19 1316.29,996.34 1316.86,1010.55"/>
    <poly id="345947565" type="building" color="255,230,230" fill="1" layer="-1.00" shape="1315.50,1027.98 1333.43,1022.48 1329.25,1009.00 1311.33,1014.50 1315.50,1027.98"/>
    <poly id="345947588" type="building" color="255,230,230" fill="1" layer="-1.00" shape="1327.95,1045.12 1340.71,1041.21 1336.57,1027.83 1323.79,1031.74 1327.95,1045.12"/>
    <poly id="345947603" type="building" color="255,230,230" fill="1" layer="-1.00" shape="1319.37,1100.84 1328.94,1097.86 1327.11,1092.04 1317.53,1095.03 1319.37,1100.84"/>
    <poly id="345947615" type="building" color="255,230,230" fill="1" layer="-1.00" shape="1322.35,1065.05 1347.75,1057.27 1343.12,1042.37 1317.73,1050.15 1322.35,1065.05"/>
    <poly id="345947628" type="building" color="255,230,230" fill="1" layer="-1.00" shape="1312.88,1093.96 1324.11,1090.62 1322.13,1084.08 1310.90,1087.43 1312.88,1093.96"/>
    <poly id="345947668" type="building" color="255,230,230" fill="1" layer="-1.00" shape="1326.18,1082.30 1351.13,1074.66 1346.65,1060.21 1321.69,1067.86 1326.18,1082.30"/>
    <poly id="345947669" type="building" color="255,230,230" fill="1" layer="-1.00" shape="1286.30,1086.14 1299.15,1084.04 1297.64,1075.06 1284.81,1077.17 1286.30,1086.14"/>
    <poly id="345947868" type="building" color="255,230,230" fill="1" layer="-1.00" shape="1292.42,1094.15 1297.33,1093.30 1298.15,1097.94 1301.61,1097.35 1299.42,1084.99 1291.06,1086.46 1292.42,1094.15"/>
    <poly id="345947885" type="building" color="255,230,230" fill="1" layer="-1.00" shape="1274.74,1104.59 1296.15,1099.26 1295.19,1095.46 1291.29,1096.42 1289.07,1087.62 1274.92,1091.13 1277.43,1101.13 1274.07,1101.96 1274.74,1104.59"/>
    <poly id="345957028" type="building" color="255,230,230" fill="1" layer="-1.00" shape="405.22,726.16 409.47,725.17 407.60,717.25 403.36,718.22 405.22,726.16"/>
    <poly id="345957059" type="building" color="255,230,230" fill="1" layer="-1.00" shape="370.68,695.84 375.42,695.89 375.45,692.48 370.71,692.43 370.68,695.84"/>
    <poly id="345957119" type="building" color="255,230,230" fill="1" layer="-1.00" shape="377.71,777.27 382.68,776.39 381.34,768.88 376.38,769.76 377.71,777.27"/>
    <poly id="345957141" type="building" color="255,230,230" fill="1" layer="-1.00" shape="380.25,680.65 384.18,680.38 383.33,668.27 379.41,668.54 380.25,680.65"/>
    <poly id="345957156" type="building" color="255,230,230" fill="1" layer="-1.00" shape="381.23,742.21 395.58,740.71 394.61,731.56 380.27,733.05 381.23,742.21"/>
    <poly id="345957173" type="building" color="255,230,230" fill="1" layer="-1.00" shape="454.30,743.30 458.65,741.50 455.85,734.83 451.50,736.63 454.30,743.30"/>
    <poly id="345957190" type="building" color="255,230,230" fill="1" layer="-1.00" shape="386.53,661.13 391.28,660.67 390.55,653.32 385.80,653.78 386.53,661.13"/>
    <poly id="345957204" type="building" color="255,230,230" fill="1" layer="-1.00" shape="378.84,667.11 382.76,666.94 382.32,656.69 378.40,656.85 378.84,667.11"/>
    <poly id="345957209" type="building" color="255,230,230" fill="1" layer="-1.00" shape="390.80,765.47 394.83,765.10 394.21,758.50 390.18,758.87 390.80,765.47"/>
    <poly id="345957215" type="building" color="255,230,230" fill="1" layer="-1.00" shape="409.96,757.67 413.16,756.78 411.23,749.91 408.02,750.80 409.96,757.67"/>
    <poly id="345957217" type="building" color="255,230,230" fill="1" layer="-1.00" shape="375.14,742.56 379.99,741.88 378.79,733.26 373.94,733.92 375.14,742.56"/>
    <poly id="345957224" type="building" color="255,230,230" fill="1" layer="-1.00" shape="412.08,736.11 418.58,735.15 417.25,726.20 410.74,727.16 412.08,736.11"/>
    <poly id="345957237" type="building" color="255,230,230" fill="1" layer="-1.00" shape="374.78,729.21 378.57,729.25 378.62,723.89 374.83,723.86 374.78,729.21"/>
    <poly id="345957239" type="building" color="255,230,230" fill="1" layer="-1.00" shape="393.08,657.00 400.19,656.96 400.17,652.06 393.05,652.09 393.08,657.00"/>
    <poly id="345957242" type="building" color="255,230,230" fill="1" layer="-1.00" shape="421.13,734.11 434.79,730.45 432.58,722.30 418.92,725.95 421.13,734.11"/>
    <poly id="345957245" type="building" color="255,230,230" fill="1" layer="-1.00" shape="371.06,707.88 375.44,707.78 375.20,697.21 370.82,697.31 371.06,707.88"/>
    <poly id="345957249" type="building" color="255,230,230" fill="1" layer="-1.00" shape="385.58,760.30 389.20,759.82 388.35,753.47 384.73,753.94 385.58,760.30"/>
    <poly id="345957256" type="building" color="255,230,230" fill="1" layer="-1.00" shape="424.52,746.23 430.62,744.75 428.40,735.73 422.31,737.21 424.52,746.23"/>
    <poly id="345957260" type="building" color="255,230,230" fill="1" layer="-1.00" shape="376.53,748.00 386.13,746.77 385.67,743.17 376.06,744.41 376.53,748.00"/>
    <poly id="345957282" type="building" color="255,230,230" fill="1" layer="-1.00" shape="383.40,751.97 386.40,751.69 386.03,747.86 383.05,748.14 383.40,751.97"/>
    <poly id="345957284" type="building" color="255,230,230" fill="1" layer="-1.00" shape="392.24,713.82 399.37,713.08 398.83,707.95 391.70,708.70 392.24,713.82"/>
    <poly id="345957287" type="building" color="255,230,230" fill="1" layer="-1.00" shape="420.72,764.65 430.45,761.98 429.40,758.23 419.68,760.89 420.72,764.65"/>
    <poly id="345957291" type="building" color="255,230,230" fill="1" layer="-1.00" shape="390.89,756.04 394.72,755.77 394.46,752.28 390.64,752.54 390.89,756.04"/>
    <poly id="345957294" type="building" color="255,230,230" fill="1" layer="-1.00" shape="384.23,776.41 400.34,773.81 398.98,765.47 382.85,768.07 384.23,776.41"/>
    <poly id="345957314" type="building" color="255,230,230" fill="1" layer="-1.00" shape="377.48,765.65 383.68,764.78 383.22,761.52 377.03,762.38 377.48,765.65"/>
    <poly id="345957316" type="building" color="255,230,230" fill="1" layer="-1.00" shape="386.02,727.50 391.39,727.14 391.10,722.80 385.73,723.16 386.02,727.50"/>
    <poly id="345957318" type="building" color="255,230,230" fill="1" layer="-1.00" shape="399.76,746.19 406.88,745.23 404.86,730.28 397.73,731.24 399.76,746.19"/>
    <poly id="345957325" type="building" color="255,230,230" fill="1" layer="-1.00" shape="397.61,764.62 400.82,764.35 399.80,752.72 396.60,753.00 397.61,764.62"/>
    <poly id="345957336" type="building" color="255,230,230" fill="1" layer="-1.00" shape="414.96,721.54 425.41,718.98 421.26,702.28 410.81,704.84 414.96,721.54"/>
    <poly id="345957342" type="building" color="255,230,230" fill="1" layer="-1.00" shape="386.34,679.68 393.57,679.24 392.78,666.34 385.55,666.78 386.34,679.68"/>
    <poly id="345957348" type="building" color="255,230,230" fill="1" layer="-1.00" shape="378.05,760.73 383.52,760.06 382.73,753.62 377.26,754.28 378.05,760.73"/>
    <poly id="345957350" type="building" color="255,230,230" fill="1" layer="-1.00" shape="372.68,721.21 377.11,720.85 376.44,712.81 372.00,713.18 372.68,721.21"/>
    <poly id="345957366" type="building" color="255,230,230" fill="1" layer="-1.00" shape="404.00,715.17 409.57,714.41 408.68,708.01 403.11,708.78 404.00,715.17"/>
    <poly id="346869526" type="building" color="255,230,230" fill="1" layer="-1.00" shape="1205.66,767.25 1239.15,756.13 1228.63,724.83 1195.14,735.95 1205.66,767.25"/>
    <poly id="346869559" type="building" color="255,230,230" fill="1" layer="-1.00" shape="1053.19,814.52 1068.24,810.24 1065.79,801.78 1050.74,806.06 1053.19,814.52"/>
    <poly id="346869565" type="building" color="255,230,230" fill="1" layer="-1.00" shape="593.94,1044.75 608.49,1043.54 607.12,1027.42 592.57,1028.64 593.94,1044.75"/>
    <poly id="346869602" type="building" color="255,230,230" fill="1" layer="-1.00" shape="985.80,922.34 999.98,918.91 993.28,891.53 979.10,894.96 985.80,922.34"/>
    <poly id="346869610" type="building" color="255,230,230" fill="1" layer="-1.00" shape="1093.25,781.08 1111.29,774.99 1106.81,761.90 1088.77,767.99 1093.25,781.08"/>
    <poly id="346869656" type="building" color="255,230,230" fill="1" layer="-1.00" shape="495.29,1098.00 506.33,1095.04 504.20,1087.18 493.15,1090.13 495.29,1098.00"/>
    <poly id="346869686" type="building" color="255,230,230" fill="1" layer="-1.00" shape="413.80,1049.89 424.61,1045.45 415.18,1022.82 404.37,1027.26 413.80,1049.89"/>
    <poly id="346869692" type="building" color="255,230,230" fill="1" layer="-1.00" shape="530.41,1033.51 542.93,1029.76 540.15,1020.57 527.63,1024.31 530.41,1033.51"/>
    <poly id="346869783" type="building" color="255,230,230" fill="1" layer="-1.00" shape="1046.14,885.23 1063.47,881.42 1060.70,869.00 1043.37,872.81 1046.14,885.23"/>
    <poly id="346869847" type="building" color="255,230,230" fill="1" layer="-1.00" shape="1028.04,820.98 1044.12,816.93 1038.90,796.50 1022.83,800.55 1028.04,820.98"/>
    <poly id="346869852" type="building" color="255,230,230" fill="1" layer="-1.00" shape="525.27,1021.92 538.83,1018.18 535.91,1007.76 522.36,1011.48 525.27,1021.92"/>
    <poly id="346869887" type="building" color="255,230,230" fill="1" layer="-1.00" shape="1229.00,859.57 1237.50,857.37 1235.47,849.62 1226.97,851.80 1229.00,859.57"/>
    <poly id="346869955" type="building" color="255,230,230" fill="1" layer="-1.00" shape="1024.40,874.76 1036.46,872.27 1035.18,866.24 1023.14,868.74 1024.40,874.76"/>
    <poly id="346869977" type="building" color="255,230,230" fill="1" layer="-1.00" shape="431.41,1103.78 438.80,1102.16 434.94,1084.76 427.55,1086.36 431.41,1103.78"/>
    <poly id="346869989" type="building" color="255,230,230" fill="1" layer="-1.00" shape="1278.28,915.82 1291.39,911.51 1286.48,896.76 1273.37,901.07 1278.28,915.82"/>
    <poly id="346870015" type="building" color="255,230,230" fill="1" layer="-1.00" shape="584.84,1071.18 605.09,1069.75 603.68,1050.17 583.44,1051.60 584.84,1071.18"/>
    <poly id="346870018" type="building" color="255,230,230" fill="1" layer="-1.00" shape="470.90,1082.86 482.35,1079.36 479.40,1069.86 467.96,1073.37 470.90,1082.86"/>
    <poly id="346870082" type="building" color="255,230,230" fill="1" layer="-1.00" shape="1000.20,983.94 1023.06,977.58 1020.94,970.05 998.08,976.42 1000.20,983.94"/>
    <poly id="346870086" type="building" color="255,230,230" fill="1" layer="-1.00" shape="1029.64,898.17 1047.44,892.90 1045.73,887.21 1027.92,892.50 1029.64,898.17"/>
    <poly id="346870093" type="building" color="255,230,230" fill="1" layer="-1.00" shape="965.90,838.67 980.71,834.96 977.63,822.86 962.83,826.58 965.90,838.67"/>
    <poly id="346870146" type="building" color="255,230,230" fill="1" layer="-1.00" shape="469.29,1003.66 477.58,1000.68 475.71,995.57 467.42,998.56 469.29,1003.66"/>
    <poly id="346870156" type="building" color="255,230,230" fill="1" layer="-1.00" shape="1231.83,833.67 1238.96,831.01 1234.19,818.39 1227.07,821.05 1231.83,833.67"/>
    <poly id="346870163" type="building" color="255,230,230" fill="1" layer="-1.00" shape="948.18,881.27 964.47,878.37 962.85,869.43 946.56,872.34 948.18,881.27"/>
    <poly id="346870185" type="building" color="255,230,230" fill="1" layer="-1.00" shape="1165.91,957.64 1180.87,952.16 1175.53,937.77 1160.57,943.25 1165.91,957.64"/>
    <poly id="346870207" type="building" color="255,230,230" fill="1" layer="-1.00" shape="1056.98,914.36 1072.71,910.42 1071.06,903.94 1055.34,907.88 1056.98,914.36"/>
    <poly id="346870213" type="building" color="255,230,230" fill="1" layer="-1.00" shape="1072.07,872.07 1085.50,869.47 1083.83,860.96 1070.41,863.56 1072.07,872.07"/>
    <poly id="346870251" type="building" color="255,230,230" fill="1" layer="-1.00" shape="1076.47,819.22 1093.46,814.95 1090.90,804.83 1073.89,809.10 1076.47,819.22"/>
    <poly id="346870257" type="building" color="255,230,230" fill="1" layer="-1.00" shape="468.48,993.87 472.73,992.44 471.52,988.87 467.26,990.31 468.48,993.87"/>
    <poly id="346870266" type="building" color="255,230,230" fill="1" layer="-1.00" shape="929.69,874.83 946.22,871.01 943.10,857.68 926.57,861.49 929.69,874.83"/>
    <poly id="346870288" type="building" color="255,230,230" fill="1" layer="-1.00" shape="1218.34,792.85 1245.57,783.34 1242.77,775.42 1215.53,784.93 1218.34,792.85"/>
    <poly id="346870323" type="building" color="255,230,230" fill="1" layer="-1.00" shape="1061.00,924.98 1075.00,921.59 1073.14,914.01 1059.14,917.39 1061.00,924.98"/>
    <poly id="346870338" type="building" color="255,230,230" fill="1" layer="-1.00" shape="1061.10,838.90 1075.45,836.08 1072.83,822.93 1058.49,825.75 1061.10,838.90"/>
    <poly id="346870398" type="building" color="255,230,230" fill="1" layer="-1.00" shape="418.63,1060.11 424.95,1057.44 422.57,1051.84 416.24,1054.51 418.63,1060.11"/>
    <poly id="346870411" type="building" color="255,230,230" fill="1" layer="-1.00" shape="1212.97,782.80 1238.36,774.76 1233.71,760.25 1208.31,768.31 1212.97,782.80"/>
    <poly id="346870418" type="building" color="255,230,230" fill="1" layer="-1.00" shape="948.06,869.89 961.49,867.64 959.27,854.63 945.85,856.89 948.06,869.89"/>
    <poly id="346870465" type="building" color="255,230,230" fill="1" layer="-1.00" shape="1073.30,931.94 1078.01,930.27 1075.63,923.60 1070.91,925.26 1073.30,931.94"/>
    <poly id="346870477" type="building" color="255,230,230" fill="1" layer="-1.00" shape="1058.02,824.22 1072.70,821.41 1070.88,811.95 1056.18,814.75 1058.02,824.22"/>
    <poly id="346870498" type="building" color="255,230,230" fill="1" layer="-1.00" shape="428.59,1075.69 456.87,1064.82 452.17,1052.77 423.89,1063.63 428.59,1075.69"/>
    <poly id="346870552" type="building" color="255,230,230" fill="1" layer="-1.00" shape="940.09,854.68 956.72,852.00 953.87,834.50 937.23,837.17 940.09,854.68"/>
    <poly id="346870568" type="building" color="255,230,230" fill="1" layer="-1.00" shape="360.52,1045.27 397.52,1033.36 389.32,1008.22 366.33,1015.63 368.40,1021.95 374.13,1020.11 377.28,1029.76 357.53,1036.12 360.52,1045.27"/>
    <poly id="346870572" type="building" color="255,230,230" fill="1" layer="-1.00" shape="1204.23,855.38 1218.24,850.52 1212.68,834.68 1198.66,839.56 1204.23,855.38"/>
    <poly id="346870575" type="building" color="255,230,230" fill="1" layer="-1.00" shape="1459.74,1106.05 1467.77,1104.66 1465.61,1092.45 1457.59,1093.85 1459.74,1106.05"/>
    <poly id="346870585" type="building" color="255,230,230" fill="1" layer="-1.00" shape="1036.06,911.76 1043.28,910.35 1042.07,904.19 1034.84,905.60 1036.06,911.76"/>
    <poly id="346870594" type="building" color="255,230,230" fill="1" layer="-1.00" shape="1031.35,832.62 1048.01,828.23 1045.25,817.91 1028.60,822.29 1031.35,832.62"/>
    <poly id="346870596" type="building" color="255,230,230" fill="1" layer="-1.00" shape="441.30,1053.74 451.18,1049.97 447.15,1039.55 437.27,1043.31 441.30,1053.74"/>
    <poly id="346870598" type="building" color="255,230,230" fill="1" layer="-1.00" shape="538.41,1055.88 550.94,1052.24 545.72,1034.47 533.20,1038.11 538.41,1055.88"/>
    <poly id="346870642" type="building" color="255,230,230" fill="1" layer="-1.00" shape="586.64,1011.35 618.63,1006.78 617.15,996.55 585.15,1001.12 586.64,1011.35"/>
    <poly id="346870646" type="building" color="255,230,230" fill="1" layer="-1.00" shape="1208.15,865.52 1223.78,860.56 1220.84,851.44 1205.22,856.41 1208.15,865.52"/>
    <poly id="346870652" type="building" color="255,230,230" fill="1" layer="-1.00" shape="341.83,1095.45 376.06,1085.55 373.32,1076.19 339.09,1086.10 341.83,1095.45"/>
    <poly id="346870671" type="building" color="255,230,230" fill="1" layer="-1.00" shape="969.92,865.64 984.84,861.70 981.83,850.43 966.90,854.38 969.92,865.64"/>
    <poly id="346870673" type="building" color="255,230,230" fill="1" layer="-1.00" shape="1008.43,826.30 1023.25,822.01 1017.06,800.92 1002.25,805.21 1008.43,826.30"/>