<?xml version="1.0" encoding="UTF-8"?>

<!-- generated on Thursday 01 February 2018 01:32:07 PM IST by Netedit Version 0.32.0
<?xml version="1.0" encoding="UTF-8"?>

<configuration xmlns:xsi="http://www.w3.org/2001/XMLSchema-instance" xsi:noNamespaceSchemaLocation="http://sumo.dlr.de/xsd/netconvertConfiguration.xsd">

    <input>
        <sumo-net-file value="/home/mtuity/Study/Projects/Traffic_Simulation/tutorials/basic/sumolympics/sumolympics.net.xml"/>
    </input>

    <output>
        <output-file value="/home/mtuity/Study/Projects/Traffic_Simulation/tutorials/basic/sumolympics/sumolympics.net.xml"/>
    </output>

    <processing>
        <no-turnarounds value="true"/>
        <offset.disable-normalization value="true"/>
        <lefthand value="false"/>
        <junctions.corner-detail value="0"/>
        <rectangular-lane-cut value="false"/>
        <walkingareas value="false"/>
    </processing>

</configuration>
-->

<net version="0.27" xmlns:xsi="http://www.w3.org/2001/XMLSchema-instance" xsi:noNamespaceSchemaLocation="http://sumo.dlr.de/xsd/net_file.xsd">

    <location netOffset="0.00,0.00" convBoundary="0.00,0.00,1000.00,0.00" origBoundary="-10000000000.00,-10000000000.00,10000000000.00,10000000000.00" projParameter="!"/>

    <edge id=":gneJ2_0" function="internal">
        <lane id=":gneJ2_0_0" index="0" allow="bus" speed="13.89" length="0.10" width="2.00" shape="900.00,-5.40 900.00,-5.40"/>
        <lane id=":gneJ2_0_1" index="1" allow="bicycle" speed="13.89" length="0.10" width="2.00" shape="900.00,-3.30 900.00,-3.30"/>
        <lane id=":gneJ2_0_2" index="2" allow="passenger" speed="13.89" length="0.10" shape="900.00,1.50 900.00,1.50"/>
        <lane id=":gneJ2_0_3" index="3" allow="rail_urban" speed="13.89" length="0.10" shape="900.00,4.80 900.00,4.80"/>
    </edge>

    <edge id="beg" from="gneJ0" to="gneJ2" priority="1" spreadType="center">
        <lane id="beg_0" index="0" allow="bus" speed="13.89" length="900.00" width="2.00" shape="0.00,-5.40 900.00,-5.40"/>
        <lane id="beg_1" index="1" allow="bicycle" speed="13.89" length="900.00" width="2.00" shape="0.00,-3.30 900.00,-3.30"/>
        <lane id="beg_2" index="2" allow="pedestrian" speed="13.89" length="900.00" width="2.00" shape="0.00,-1.20 900.00,-1.20"/>
        <lane id="beg_3" index="3" allow="passenger" speed="13.89" length="900.00" shape="0.00,1.50 900.00,1.50"/>
        <lane id="beg_4" index="4" allow="rail_urban" speed="13.89" length="900.00" shape="0.00,4.80 900.00,4.80"/>
    </edge>
    <edge id="end" from="gneJ2" to="gneJ1" priority="1" spreadType="center">
        <lane id="end_0" index="0" allow="bus" speed="13.89" length="100.00" width="2.00" shape="900.00,-5.40 1000.00,-5.40"/>
        <lane id="end_1" index="1" allow="bicycle" speed="13.89" length="100.00" width="2.00" shape="900.00,-3.30 1000.00,-3.30"/>
        <lane id="end_2" index="2" allow="pedestrian" speed="13.89" length="100.00" width="2.00" shape="900.00,-1.20 1000.00,-1.20"/>
        <lane id="end_3" index="3" allow="passenger" speed="13.89" length="100.00" shape="900.00,1.50 1000.00,1.50"/>
        <lane id="end_4" index="4" allow="rail_urban" speed="13.89" length="100.00" shape="900.00,4.80 1000.00,4.80"/>
    </edge>

    <tlLogic id="gneJ2" type="static" programID="0" offset="0">
        <phase duration="100" state="rrrr"/>
        <phase duration="1000" state="GGGG"/>
    </tlLogic>

    <junction id="gneJ0" type="dead_end" x="0.00" y="0.00" incLanes="" intLanes="" shape="0.00,6.40 0.00,-6.40"/>
    <junction id="gneJ1" type="dead_end" x="1000.00" y="0.00" incLanes="end_0 end_1 end_2 end_3 end_4" intLanes="" shape="1000.00,-6.40 1000.00,6.40"/>
    <junction id="gneJ2" type="traffic_light" x="900.00" y="0.00" incLanes="beg_0 beg_1 beg_2 beg_3 beg_4" intLanes=":gneJ2_0_0 :gneJ2_0_1 :gneJ2_0_2 :gneJ2_0_3" shape="900.00,6.40 900.00,-6.40 900.00,6.40">
        <request index="0" response="0000" foes="0000" cont="0"/>
        <request index="1" response="0000" foes="0000" cont="0"/>
        <request index="2" response="0000" foes="0000" cont="0"/>
        <request index="3" response="0000" foes="0000" cont="0"/>
    </junction>

    <connection from="beg" to="end" fromLane="0" toLane="0" via=":gneJ2_0_0" tl="gneJ2" linkIndex="0" dir="s" state="o"/>
    <connection from="beg" to="end" fromLane="1" toLane="1" via=":gneJ2_0_1" tl="gneJ2" linkIndex="1" dir="s" state="o"/>
    <connection from="beg" to="end" fromLane="3" toLane="3" via=":gneJ2_0_2" tl="gneJ2" linkIndex="2" dir="s" state="o"/>
    <connection from="beg" to="end" fromLane="4" toLane="4" via=":gneJ2_0_3" tl="gneJ2" linkIndex="3" dir="s" state="o"/>

    <connection from=":gneJ2_0" to="end" fromLane="0" toLane="0" dir="s" state="M"/>
    <connection from=":gneJ2_0" to="end" fromLane="1" toLane="1" dir="s" state="M"/>
    <connection from=":gneJ2_0" to="end" fromLane="2" toLane="3" dir="s" state="M"/>
    <connection from=":gneJ2_0" to="end" fromLane="3" toLane="4" dir="s" state="M"/>

</net>
