<routes>
    <person depart="0.000000" id="p0">
        <walk arrivalPos="-30.000000" edges="beg end"/>
    </person>
    <person depart="0.000000" id="p1">
        <walk arrivalPos="-30.000000" edges="beg end"/>
    </person>
    <person depart="0.000000" id="p2">
        <walk arrivalPos="-30.000000" edges="beg end"/>
    </person>
    <person depart="0.000000" id="p3">
        <walk arrivalPos="-30.000000" edges="beg end"/>
    </person>
    <person depart="0.000000" id="p4">
        <walk arrivalPos="-30.000000" edges="beg end"/>
    </person>
    <person depart="0.000000" id="p5">
        <walk arrivalPos="-30.000000" edges="beg end"/>
    </person>
    <person depart="0.000000" id="p6">
        <walk arrivalPos="-30.000000" edges="beg end"/>
    </person>
    <person depart="0.000000" id="p7">
        <walk arrivalPos="-30.000000" edges="beg end"/>
    </person>
    <person depart="0.000000" id="p8">
        <walk arrivalPos="-30.000000" edges="beg end"/>
    </person>
    <person depart="0.000000" id="p9">
        <walk arrivalPos="-30.000000" edges="beg end"/>
    </person>
    <person depart="0.000000" id="p10">
        <walk arrivalPos="-30.000000" edges="beg end"/>
    </person>
    <person depart="0.000000" id="p11">
        <walk arrivalPos="-30.000000" edges="beg end"/>
    </person>
    <person depart="0.000000" id="p12">
        <walk arrivalPos="-30.000000" edges="beg end"/>
    </person>
    <person depart="0.000000" id="p13">
        <walk arrivalPos="-30.000000" edges="beg end"/>
    </person>
    <person depart="0.000000" id="p14">
        <walk arrivalPos="-30.000000" edges="beg end"/>
    </person>
    <person depart="0.000000" id="p15">
        <walk arrivalPos="-30.000000" edges="beg end"/>
    </person>
    <person depart="0.000000" id="p16">
        <walk arrivalPos="-30.000000" edges="beg end"/>
    </person>
    <person depart="0.000000" id="p17">
        <walk arrivalPos="-30.000000" edges="beg end"/>
    </person>
    <person depart="0.000000" id="p18">
        <walk arrivalPos="-30.000000" edges="beg end"/>
    </person>
    <person depart="0.000000" id="p19">
        <walk arrivalPos="-30.000000" edges="beg end"/>
    </person>
    <person depart="0.000000" id="p20">
        <walk arrivalPos="-30.000000" edges="beg end"/>
    </person>
    <person depart="0.000000" id="p21">
        <walk arrivalPos="-30.000000" edges="beg end"/>
    </person>
    <person depart="0.000000" id="p22">
        <walk arrivalPos="-30.000000" edges="beg end"/>
    </person>
    <person depart="0.000000" id="p23">
        <walk arrivalPos="-30.000000" edges="beg end"/>
    </person>
    <person depart="0.000000" id="p24">
        <walk arrivalPos="-30.000000" edges="beg end"/>
    </person>
    <person depart="0.000000" id="p25">
        <walk arrivalPos="-30.000000" edges="beg end"/>
    </person>
    <person depart="0.000000" id="p26">
        <walk arrivalPos="-30.000000" edges="beg end"/>
    </person>
    <person depart="0.000000" id="p27">
        <walk arrivalPos="-30.000000" edges="beg end"/>
    </person>
    <person depart="0.000000" id="p28">
        <walk arrivalPos="-30.000000" edges="beg end"/>
    </person>
    <person depart="0.000000" id="p29">
        <walk arrivalPos="-30.000000" edges="beg end"/>
    </person>
    <person depart="0.000000" id="p30">
        <walk arrivalPos="-30.000000" edges="beg end"/>
    </person>
    <person depart="0.000000" id="p31">
        <walk arrivalPos="-30.000000" edges="beg end"/>
    </person>
    <person depart="0.000000" id="p32">
        <walk arrivalPos="-30.000000" edges="beg end"/>
    </person>
    <person depart="0.000000" id="p33">
        <walk arrivalPos="-30.000000" edges="beg end"/>
    </person>
    <person depart="0.000000" id="p34">
        <walk arrivalPos="-30.000000" edges="beg end"/>
    </person>
    <person depart="0.000000" id="p35">
        <walk arrivalPos="-30.000000" edges="beg end"/>
    </person>
    <person depart="0.000000" id="p36">
        <walk arrivalPos="-30.000000" edges="beg end"/>
    </person>
    <person depart="0.000000" id="p37">
        <walk arrivalPos="-30.000000" edges="beg end"/>
    </person>
    <person depart="0.000000" id="p38">
        <walk arrivalPos="-30.000000" edges="beg end"/>
    </person>
    <person depart="0.000000" id="p39">
        <walk arrivalPos="-30.000000" edges="beg end"/>
    </person>
    <person depart="0.000000" id="p40">
        <walk arrivalPos="-30.000000" edges="beg end"/>
    </person>
    <person depart="0.000000" id="p41">
        <walk arrivalPos="-30.000000" edges="beg end"/>
    </person>
    <person depart="0.000000" id="p42">
        <walk arrivalPos="-30.000000" edges="beg end"/>
    </person>
    <person depart="0.000000" id="p43">
        <walk arrivalPos="-30.000000" edges="beg end"/>
    </person>
    <person depart="0.000000" id="p44">
        <walk arrivalPos="-30.000000" edges="beg end"/>
    </person>
    <person depart="0.000000" id="p45">
        <walk arrivalPos="-30.000000" edges="beg end"/>
    </person>
    <person depart="0.000000" id="p46">
        <walk arrivalPos="-30.000000" edges="beg end"/>
    </person>
    <person depart="0.000000" id="p47">
        <walk arrivalPos="-30.000000" edges="beg end"/>
    </person>
    <person depart="0.000000" id="p48">
        <walk arrivalPos="-30.000000" edges="beg end"/>
    </person>
    <person depart="0.000000" id="p49">
        <walk arrivalPos="-30.000000" edges="beg end"/>
    </person>
    <person depart="0.000000" id="p50">
        <walk arrivalPos="-30.000000" edges="beg end"/>
    </person>
    <person depart="0.000000" id="p51">
        <walk arrivalPos="-30.000000" edges="beg end"/>
    </person>
    <person depart="0.000000" id="p52">
        <walk arrivalPos="-30.000000" edges="beg end"/>
    </person>
    <person depart="0.000000" id="p53">
        <walk arrivalPos="-30.000000" edges="beg end"/>
    </person>
    <person depart="0.000000" id="p54">
        <walk arrivalPos="-30.000000" edges="beg end"/>
    </person>
    <person depart="0.000000" id="p55">
        <walk arrivalPos="-30.000000" edges="beg end"/>
    </person>
    <person depart="0.000000" id="p56">
        <walk arrivalPos="-30.000000" edges="beg end"/>
    </person>
    <person depart="0.000000" id="p57">
        <walk arrivalPos="-30.000000" edges="beg end"/>
    </person>
    <person depart="0.000000" id="p58">
        <walk arrivalPos="-30.000000" edges="beg end"/>
    </person>
    <person depart="0.000000" id="p59">
        <walk arrivalPos="-30.000000" edges="beg end"/>
    </person>
    <person depart="0.000000" id="p60">
        <walk arrivalPos="-30.000000" edges="beg end"/>
    </person>
    <person depart="0.000000" id="p61">
        <walk arrivalPos="-30.000000" edges="beg end"/>
    </person>
    <person depart="0.000000" id="p62">
        <walk arrivalPos="-30.000000" edges="beg end"/>
    </person>
    <person depart="0.000000" id="p63">
        <walk arrivalPos="-30.000000" edges="beg end"/>
    </person>
    <person depart="0.000000" id="p64">
        <walk arrivalPos="-30.000000" edges="beg end"/>
    </person>
    <person depart="0.000000" id="p65">
        <walk arrivalPos="-30.000000" edges="beg end"/>
    </person>
    <person depart="0.000000" id="p66">
        <walk arrivalPos="-30.000000" edges="beg end"/>
    </person>
    <person depart="0.000000" id="p67">
        <walk arrivalPos="-30.000000" edges="beg end"/>
    </person>
    <person depart="0.000000" id="p68">
        <walk arrivalPos="-30.000000" edges="beg end"/>
    </person>
    <person depart="0.000000" id="p69">
        <walk arrivalPos="-30.000000" edges="beg end"/>
    </person>
    <person depart="0.000000" id="p70">
        <walk arrivalPos="-30.000000" edges="beg end"/>
    </person>
    <person depart="0.000000" id="p71">
        <walk arrivalPos="-30.000000" edges="beg end"/>
    </person>
    <person depart="0.000000" id="p72">
        <walk arrivalPos="-30.000000" edges="beg end"/>
    </person>
    <person depart="0.000000" id="p73">
        <walk arrivalPos="-30.000000" edges="beg end"/>
    </person>
    <person depart="0.000000" id="p74">
        <walk arrivalPos="-30.000000" edges="beg end"/>
    </person>
    <person depart="0.000000" id="p75">
        <walk arrivalPos="-30.000000" edges="beg end"/>
    </person>
    <person depart="0.000000" id="p76">
        <walk arrivalPos="-30.000000" edges="beg end"/>
    </person>
    <person depart="0.000000" id="p77">
        <walk arrivalPos="-30.000000" edges="beg end"/>
    </person>
    <person depart="0.000000" id="p78">
        <walk arrivalPos="-30.000000" edges="beg end"/>
    </person>
    <person depart="0.000000" id="p79">
        <walk arrivalPos="-30.000000" edges="beg end"/>
    </person>
    <person depart="0.000000" id="p80">
        <walk arrivalPos="-30.000000" edges="beg end"/>
    </person>
    <person depart="0.000000" id="p81">
        <walk arrivalPos="-30.000000" edges="beg end"/>
    </person>
    <person depart="0.000000" id="p82">
        <walk arrivalPos="-30.000000" edges="beg end"/>
    </person>
    <person depart="0.000000" id="p83">
        <walk arrivalPos="-30.000000" edges="beg end"/>
    </person>
    <person depart="0.000000" id="p84">
        <walk arrivalPos="-30.000000" edges="beg end"/>
    </person>
    <person depart="0.000000" id="p85">
        <walk arrivalPos="-30.000000" edges="beg end"/>
    </person>
    <person depart="0.000000" id="p86">
        <walk arrivalPos="-30.000000" edges="beg end"/>
    </person>
    <person depart="0.000000" id="p87">
        <walk arrivalPos="-30.000000" edges="beg end"/>
    </person>
    <person depart="0.000000" id="p88">
        <walk arrivalPos="-30.000000" edges="beg end"/>
    </person>
    <person depart="0.000000" id="p89">
        <walk arrivalPos="-30.000000" edges="beg end"/>
    </person>
    <person depart="0.000000" id="p90">
        <walk arrivalPos="-30.000000" edges="beg end"/>
    </person>
    <person depart="0.000000" id="p91">
        <walk arrivalPos="-30.000000" edges="beg end"/>
    </person>
    <person depart="0.000000" id="p92">
        <walk arrivalPos="-30.000000" edges="beg end"/>
    </person>
    <person depart="0.000000" id="p93">
        <walk arrivalPos="-30.000000" edges="beg end"/>
    </person>
    <person depart="0.000000" id="p94">
        <walk arrivalPos="-30.000000" edges="beg end"/>
    </person>
    <person depart="0.000000" id="p95">
        <walk arrivalPos="-30.000000" edges="beg end"/>
    </person>
    <person depart="0.000000" id="p96">
        <walk arrivalPos="-30.000000" edges="beg end"/>
    </person>
    <person depart="0.000000" id="p97">
        <walk arrivalPos="-30.000000" edges="beg end"/>
    </person>
    <person depart="0.000000" id="p98">
        <walk arrivalPos="-30.000000" edges="beg end"/>
    </person>
    <person depart="0.000000" id="p99">
        <walk arrivalPos="-30.000000" edges="beg end"/>
    </person>
    <person depart="0.000000" id="p100">
        <walk arrivalPos="-30.000000" edges="beg end"/>
    </person>
    <person depart="0.000000" id="p101">
        <walk arrivalPos="-30.000000" edges="beg end"/>
    </person>
    <person depart="0.000000" id="p102">
        <walk arrivalPos="-30.000000" edges="beg end"/>
    </person>
    <person depart="0.000000" id="p103">
        <walk arrivalPos="-30.000000" edges="beg end"/>
    </person>
    <person depart="0.000000" id="p104">
        <walk arrivalPos="-30.000000" edges="beg end"/>
    </person>
    <person depart="0.000000" id="p105">
        <walk arrivalPos="-30.000000" edges="beg end"/>
    </person>
    <person depart="0.000000" id="p106">
        <walk arrivalPos="-30.000000" edges="beg end"/>
    </person>
    <person depart="0.000000" id="p107">
        <walk arrivalPos="-30.000000" edges="beg end"/>
    </person>
    <person depart="0.000000" id="p108">
        <walk arrivalPos="-30.000000" edges="beg end"/>
    </person>
    <person depart="0.000000" id="p109">
        <walk arrivalPos="-30.000000" edges="beg end"/>
    </person>
    <person depart="0.000000" id="p110">
        <walk arrivalPos="-30.000000" edges="beg end"/>
    </person>
    <person depart="0.000000" id="p111">
        <walk arrivalPos="-30.000000" edges="beg end"/>
    </person>
    <person depart="0.000000" id="p112">
        <walk arrivalPos="-30.000000" edges="beg end"/>
    </person>
    <person depart="0.000000" id="p113">
        <walk arrivalPos="-30.000000" edges="beg end"/>
    </person>
    <person depart="0.000000" id="p114">
        <walk arrivalPos="-30.000000" edges="beg end"/>
    </person>
    <person depart="0.000000" id="p115">
        <walk arrivalPos="-30.000000" edges="beg end"/>
    </person>
    <person depart="0.000000" id="p116">
        <walk arrivalPos="-30.000000" edges="beg end"/>
    </person>
    <person depart="0.000000" id="p117">
        <walk arrivalPos="-30.000000" edges="beg end"/>
    </person>
    <person depart="0.000000" id="p118">
        <walk arrivalPos="-30.000000" edges="beg end"/>
    </person>
    <person depart="0.000000" id="p119">
        <walk arrivalPos="-30.000000" edges="beg end"/>
    </person>
    <person depart="0.000000" id="p120">
        <walk arrivalPos="-30.000000" edges="beg end"/>
    </person>
    <person depart="0.000000" id="p121">
        <walk arrivalPos="-30.000000" edges="beg end"/>
    </person>
    <person depart="0.000000" id="p122">
        <walk arrivalPos="-30.000000" edges="beg end"/>
    </person>
    <person depart="0.000000" id="p123">
        <walk arrivalPos="-30.000000" edges="beg end"/>
    </person>
    <person depart="0.000000" id="p124">
        <walk arrivalPos="-30.000000" edges="beg end"/>
    </person>
    <person depart="0.000000" id="p125">
        <walk arrivalPos="-30.000000" edges="beg end"/>
    </person>
    <person depart="0.000000" id="p126">
        <walk arrivalPos="-30.000000" edges="beg end"/>
    </person>
    <person depart="0.000000" id="p127">
        <walk arrivalPos="-30.000000" edges="beg end"/>
    </person>
    <person depart="0.000000" id="p128">
        <walk arrivalPos="-30.000000" edges="beg end"/>
    </person>
    <person depart="0.000000" id="p129">
        <walk arrivalPos="-30.000000" edges="beg end"/>
    </person>
    <person depart="0.000000" id="p130">
        <walk arrivalPos="-30.000000" edges="beg end"/>
    </person>
    <person depart="0.000000" id="p131">
        <walk arrivalPos="-30.000000" edges="beg end"/>
    </person>
    <person depart="0.000000" id="p132">
        <walk arrivalPos="-30.000000" edges="beg end"/>
    </person>
    <person depart="0.000000" id="p133">
        <walk arrivalPos="-30.000000" edges="beg end"/>
    </person>
    <person depart="0.000000" id="p134">
        <walk arrivalPos="-30.000000" edges="beg end"/>
    </person>
    <person depart="0.000000" id="p135">
        <walk arrivalPos="-30.000000" edges="beg end"/>
    </person>
    <person depart="0.000000" id="p136">
        <walk arrivalPos="-30.000000" edges="beg end"/>
    </person>
    <person depart="0.000000" id="p137">
        <walk arrivalPos="-30.000000" edges="beg end"/>
    </person>
    <person depart="0.000000" id="p138">
        <walk arrivalPos="-30.000000" edges="beg end"/>
    </person>
    <person depart="0.000000" id="p139">
        <walk arrivalPos="-30.000000" edges="beg end"/>
    </person>
    <person depart="0.000000" id="p140">
        <walk arrivalPos="-30.000000" edges="beg end"/>
    </person>
    <person depart="0.000000" id="p141">
        <walk arrivalPos="-30.000000" edges="beg end"/>
    </person>
    <person depart="0.000000" id="p142">
        <walk arrivalPos="-30.000000" edges="beg end"/>
    </person>
    <person depart="0.000000" id="p143">
        <walk arrivalPos="-30.000000" edges="beg end"/>
    </person>
    <person depart="0.000000" id="p144">
        <walk arrivalPos="-30.000000" edges="beg end"/>
    </person>
    <person depart="0.000000" id="p145">
        <walk arrivalPos="-30.000000" edges="beg end"/>
    </person>
    <person depart="0.000000" id="p146">
        <walk arrivalPos="-30.000000" edges="beg end"/>
    </person>
    <person depart="0.000000" id="p147">
        <walk arrivalPos="-30.000000" edges="beg end"/>
    </person>
    <person depart="0.000000" id="p148">
        <walk arrivalPos="-30.000000" edges="beg end"/>
    </person>
    <person depart="0.000000" id="p149">
        <walk arrivalPos="-30.000000" edges="beg end"/>
    </person>
    <person depart="0.000000" id="p150">
        <walk arrivalPos="-30.000000" edges="beg end"/>
    </person>
    <person depart="0.000000" id="p151">
        <walk arrivalPos="-30.000000" edges="beg end"/>
    </person>
    <person depart="0.000000" id="p152">
        <walk arrivalPos="-30.000000" edges="beg end"/>
    </person>
    <person depart="0.000000" id="p153">
        <walk arrivalPos="-30.000000" edges="beg end"/>
    </person>
    <person depart="0.000000" id="p154">
        <walk arrivalPos="-30.000000" edges="beg end"/>
    </person>
    <person depart="0.000000" id="p155">
        <walk arrivalPos="-30.000000" edges="beg end"/>
    </person>
    <person depart="0.000000" id="p156">
        <walk arrivalPos="-30.000000" edges="beg end"/>
    </person>
    <person depart="0.000000" id="p157">
        <walk arrivalPos="-30.000000" edges="beg end"/>
    </person>
    <person depart="0.000000" id="p158">
        <walk arrivalPos="-30.000000" edges="beg end"/>
    </person>
    <person depart="0.000000" id="p159">
        <walk arrivalPos="-30.000000" edges="beg end"/>
    </person>
    <person depart="0.000000" id="p160">
        <walk arrivalPos="-30.000000" edges="beg end"/>
    </person>
    <person depart="0.000000" id="p161">
        <walk arrivalPos="-30.000000" edges="beg end"/>
    </person>
    <person depart="0.000000" id="p162">
        <walk arrivalPos="-30.000000" edges="beg end"/>
    </person>
    <person depart="0.000000" id="p163">
        <walk arrivalPos="-30.000000" edges="beg end"/>
    </person>
    <person depart="0.000000" id="p164">
        <walk arrivalPos="-30.000000" edges="beg end"/>
    </person>
    <person depart="0.000000" id="p165">
        <walk arrivalPos="-30.000000" edges="beg end"/>
    </person>
    <person depart="0.000000" id="p166">
        <walk arrivalPos="-30.000000" edges="beg end"/>
    </person>
    <person depart="0.000000" id="p167">
        <walk arrivalPos="-30.000000" edges="beg end"/>
    </person>
    <person depart="0.000000" id="p168">
        <walk arrivalPos="-30.000000" edges="beg end"/>
    </person>
    <person depart="0.000000" id="p169">
        <walk arrivalPos="-30.000000" edges="beg end"/>
    </person>
    <person depart="0.000000" id="p170">
        <walk arrivalPos="-30.000000" edges="beg end"/>
    </person>
    <person depart="0.000000" id="p171">
        <walk arrivalPos="-30.000000" edges="beg end"/>
    </person>
    <person depart="0.000000" id="p172">
        <walk arrivalPos="-30.000000" edges="beg end"/>
    </person>
    <person depart="0.000000" id="p173">
        <walk arrivalPos="-30.000000" edges="beg end"/>
    </person>
    <person depart="0.000000" id="p174">
        <walk arrivalPos="-30.000000" edges="beg end"/>
    </person>
    <person depart="0.000000" id="p175">
        <walk arrivalPos="-30.000000" edges="beg end"/>
    </person>
    <person depart="0.000000" id="p176">
        <walk arrivalPos="-30.000000" edges="beg end"/>
    </person>
    <person depart="0.000000" id="p177">
        <walk arrivalPos="-30.000000" edges="beg end"/>
    </person>
    <person depart="0.000000" id="p178">
        <walk arrivalPos="-30.000000" edges="beg end"/>
    </person>
    <person depart="0.000000" id="p179">
        <walk arrivalPos="-30.000000" edges="beg end"/>
    </person>
    <person depart="0.000000" id="p180">
        <walk arrivalPos="-30.000000" edges="beg end"/>
    </person>
    <person depart="0.000000" id="p181">
        <walk arrivalPos="-30.000000" edges="beg end"/>
    </person>
    <person depart="0.000000" id="p182">
        <walk arrivalPos="-30.000000" edges="beg end"/>
    </person>
    <person depart="0.000000" id="p183">
        <walk arrivalPos="-30.000000" edges="beg end"/>
    </person>
    <person depart="0.000000" id="p184">
        <walk arrivalPos="-30.000000" edges="beg end"/>
    </person>
    <person depart="0.000000" id="p185">
        <walk arrivalPos="-30.000000" edges="beg end"/>
    </person>
    <person depart="0.000000" id="p186">
        <walk arrivalPos="-30.000000" edges="beg end"/>
    </person>
    <person depart="0.000000" id="p187">
        <walk arrivalPos="-30.000000" edges="beg end"/>
    </person>
    <person depart="0.000000" id="p188">
        <walk arrivalPos="-30.000000" edges="beg end"/>
    </person>
    <person depart="0.000000" id="p189">
        <walk arrivalPos="-30.000000" edges="beg end"/>
    </person>
    <person depart="0.000000" id="p190">
        <walk arrivalPos="-30.000000" edges="beg end"/>
    </person>
    <person depart="0.000000" id="p191">
        <walk arrivalPos="-30.000000" edges="beg end"/>
    </person>
    <person depart="0.000000" id="p192">
        <walk arrivalPos="-30.000000" edges="beg end"/>
    </person>
    <person depart="0.000000" id="p193">
        <walk arrivalPos="-30.000000" edges="beg end"/>
    </person>
    <person depart="0.000000" id="p194">
        <walk arrivalPos="-30.000000" edges="beg end"/>
    </person>
    <person depart="0.000000" id="p195">
        <walk arrivalPos="-30.000000" edges="beg end"/>
    </person>
    <person depart="0.000000" id="p196">
        <walk arrivalPos="-30.000000" edges="beg end"/>
    </person>
    <person depart="0.000000" id="p197">
        <walk arrivalPos="-30.000000" edges="beg end"/>
    </person>
    <person depart="0.000000" id="p198">
        <walk arrivalPos="-30.000000" edges="beg end"/>
    </person>
    <person depart="0.000000" id="p199">
        <walk arrivalPos="-30.000000" edges="beg end"/>
    </person>
</routes>
